FoamFile { format ascii; class dictionary; object momentumTransport; }
simulationType  laminar;
