FoamFile { format ascii; class dictionary; object controlDict; }

solver          fgmFluid;
startFrom       startTime;
startTime       0;
stopAt          endTime;
endTime         3000;
deltaT          1;
adjustTimeStep  no;
maxCo           0.6;
writeControl    timeStep;
writeInterval   3000;
writeFormat     ascii;
writePrecision  10;
runTimeModifiable false;

libs ("libRGP13realFluid.so" "libfgmFluid.so");
