FoamFile { format ascii; class dictionary; object fvSchemes; }

ddtSchemes { default Euler; }
gradSchemes { default Gauss linear; }
divSchemes
{
    default none;
    div(phi,U)      Gauss limitedLinearV 1;
    div(phi,Yi_h)   Gauss limitedLinear 1;
    div(phi,K)      Gauss limitedLinear 1;
    div(((rho*nuEff)*dev2(T(grad(U))))) Gauss linear;
}
laplacianSchemes { default Gauss linear orthogonal; }
interpolationSchemes { default linear; }
snGradSchemes { default orthogonal; }
