/*--------------------------------*- C++ -*----------------------------------*\
| Generated by yaml_to_openfoam_thermo.py from a Cantera SRK YAML mechanism.   |
\*---------------------------------------------------------------------------*/
FoamFile
{
    version     2.0;
    format      ascii;
    class       dictionary;
    location    "constant";
    object      thermo.compressibleGas;
}
// * * * * * * * * * * * * * * * * * * * * * * * * * * * * * * * * * * * * * //

species 106 ( NC10H22 PHC3H7 CYC9H18 O2 N2 AC8H17 C2H5 PHCH2 C2H4 C3H6 AC5H10 NC3H7 C4H73 C2H5O2 DC8H17 BPHC3H6 TOLUEN CPHC3H6 H AC3H5 HO2 CH3 C2H3 BPHPROPY STYREN OH O BC10H21 H2 CC10H21 DC10H21 EC10H21 AC9H17C AC10H21 H2O2 CH3O2 CH2O HCO C6H6 C2H2 H2O AC7H15 CH3O CO C6H5O HCCO CC7H15 CO2 C5H5 C4H8 SCH2 C5H5O13 CH2 NC4H5 AC6H13 PC4H9 CYC6H11 EC9H17C CPD BC6H13 C6H1116 C6H1112 C6H1115 FC9H17C CC9H17C BC9H17C C6H5 C5H913 ACROL C2H3CO PHCH2O PHHCO PHCO CH4 C3H5O C2H4O2H SC3H5 MEALL CH3HCO C4H6 CH3CO IC4H5 APHC3H6 TC3H5 C6H5OH C5H813 C5H7 C2H6 AC6H12 C6H1113 CH2HCO AC5H11 CH2CO CH2OH AC9H18 AC7H14 C4H4 C2H C5H4OH PC3H4 IC4H3 C4H2 C5H4O C3H3 C4H APHC2H4 );

NC10H22
{
    specie
    {
        molWeight       142.28600;
    }
    rfProperties
    {
        penelouxShift   true;
        Tc              617.8;
        Pc              2.11e+06;
        Vc              600.1233;
        omega           0.488;
        kappai          0;
        miui            0;
        sigmvi          209.8;
    }
    thermodynamics
    {
        Tlow            300;
        Thigh           5000;
        Tcommon         1000;
        highCpCoeffs    ( 22.576211 0.061461103 -2.3262162e-05 4.0211304e-09 -2.609846e-13 -41874.508 -85.926533 );
        lowCpCoeffs     ( -3.6326315 0.13797385 -0.00012604125 8.4876452e-08 -2.8641116e-11 -34200.144 50.137796 );
    }
    transport
    {
        As              8.62531e-07;
        Ts              518.352;
    }
    elements
    {
        C   10;
        H   22;
    }
}

PHC3H7
{
    specie
    {
        molWeight       120.19500;
    }
    rfProperties
    {
        penelouxShift   true;
        Tc              638.4;
        Pc              3.2e+06;
        Vc              431.0668;
        omega           0.344;
        kappai          0;
        miui            0;
        sigmvi          170.8;
    }
    thermodynamics
    {
        Tlow            300;
        Thigh           5000;
        Tcommon         1000;
        highCpCoeffs    ( 19.56456 0.03371875 -1.127997e-05 1.780649e-09 -1.090086e-13 -8668.846 -79.05852 );
        lowCpCoeffs     ( -4.2383 0.09006415 -5.331408e-05 9.883891e-09 1.259661e-12 -1326.863 46.99421 );
    }
    transport
    {
        As              9.56612e-07;
        Ts              491.502;
    }
    elements
    {
        C   9;
        H   12;
    }
}

CYC9H18
{
    specie
    {
        molWeight       126.24300;
    }
    rfProperties
    {
        penelouxShift   true;
        Tc              629;
        Pc              2.85e+06;
        Vc              475.1753;
        omega           0.354;
        kappai          0;
        miui            0;
        sigmvi          184.7;
    }
    thermodynamics
    {
        Tlow            298;
        Thigh           5000;
        Tcommon         1000;
        highCpCoeffs    ( 21.86927 0.05042443 -1.790479e-05 2.94622e-09 -1.855334e-13 -34761.23 -96.08839 );
        lowCpCoeffs     ( -7.511653 0.1154826 -6.191668e-05 9.188978e-09 1.868443e-12 -25210.23 61.22126 );
    }
    transport
    {
        As              9.80384e-07;
        Ts              491.502;
    }
    elements
    {
        C   9;
        H   18;
    }
}

O2
{
    specie
    {
        molWeight       31.99800;
    }
    rfProperties
    {
        penelouxShift   true;
        Tc              154.6;
        Pc              5.043e+06;
        Vc              73.8473;
        omega           0.022;
        kappai          0;
        miui            0;
        sigmvi          16.3;
    }
    thermodynamics
    {
        Tlow            300;
        Thigh           5000;
        Tcommon         1000;
        highCpCoeffs    ( 3.69758 0.00061352 -1.2588e-07 1.775e-11 -1.14e-15 -1233.9 3.189 );
        lowCpCoeffs     ( 3.21294 0.00112749 -5.7562e-07 1.31388e-09 -8.7686e-13 -1005.2 6.035 );
    }
    transport
    {
        As              1.76387e-06;
        Ts              144.129;
    }
    elements
    {
        O   2;
    }
}

N2
{
    specie
    {
        molWeight       28.01400;
    }
    rfProperties
    {
        penelouxShift   true;
        Tc              126.2;
        Pc              3.398e+06;
        Vc              88.9817;
        omega           0.039;
        kappai          0;
        miui            0;
        sigmvi          18.5;
    }
    thermodynamics
    {
        Tlow            300;
        Thigh           5000;
        Tcommon         1000;
        highCpCoeffs    ( 2.92664 0.00148798 -5.6848e-07 1.0097e-10 -6.75e-15 -922.8 5.981 );
        lowCpCoeffs     ( 3.29868 0.00140824 -3.96322e-06 5.64151e-09 -2.44485e-12 -1020.9 3.95 );
    }
    transport
    {
        As              1.52037e-06;
        Ts              137.072;
    }
    elements
    {
        N   2;
    }
}

AC8H17
{
    specie
    {
        molWeight       113.22400;
    }
    rfProperties
    {
        penelouxShift   true;
        Tc              568.7;
        Pc              2.49e+06;
        Vc              483.9821;
        omega           0.398;
        kappai          0;
        miui            0;
        sigmvi          166.5;
    }
    thermodynamics
    {
        Tlow            300;
        Thigh           5000;
        Tcommon         1000;
        highCpCoeffs    ( 20.365761 0.045130568 -1.7071365e-05 2.9484372e-09 -1.9118267e-13 -12476.666 -81.038978 );
        lowCpCoeffs     ( -5.6381039 0.12265445 -0.00011604047 7.2330457e-08 -2.2124118e-11 -5203.9591 52.905922 );
    }
    transport
    {
        As              8.95579e-07;
        Ts              484.523;
    }
    elements
    {
        C   8;
        H   17;
    }
}

C2H5
{
    specie
    {
        molWeight       29.06200;
    }
    rfProperties
    {
        penelouxShift   true;
        Tc              305.3;
        Pc              4.87e+06;
        Vc              147.3168;
        omega           0.099;
        kappai          0;
        miui            0;
        sigmvi          43.35;
    }
    thermodynamics
    {
        Tlow            300;
        Thigh           5000;
        Tcommon         1000;
        highCpCoeffs    ( 4.800688 0.01184099 -4.338718e-06 7.699828e-10 -5.220956e-14 11659.76 -2.675834 );
        lowCpCoeffs     ( 0.1608267 0.0207828 -4.555116e-06 -8.101919e-09 4.734146e-12 13161.56 22.3023 );
    }
    transport
    {
        As              1.02955e-06;
        Ts              280.089;
    }
    elements
    {
        C   2;
        H   5;
    }
}

PHCH2
{
    specie
    {
        molWeight       91.13300;
    }
    rfProperties
    {
        penelouxShift   true;
        Tc              591.8;
        Pc              4.106e+06;
        Vc              320.3247;
        omega           0.264;
        kappai          0;
        miui            0;
        sigmvi          127.5;
    }
    thermodynamics
    {
        Tlow            200;
        Thigh           6000;
        Tcommon         1000;
        highCpCoeffs    ( 14.04398 0.023493873 -8.5375367e-06 1.3890841e-09 -8.361442e-14 18564.203 -51.665589 );
        lowCpCoeffs     ( 0.4811154 0.038512832 3.2861492e-05 -7.6972721e-08 3.5423068e-11 23307.027 23.54882 );
    }
    transport
    {
        As              1.24807e-06;
        Ts              386.784;
    }
    elements
    {
        C   7;
        H   7;
    }
}

C2H4
{
    specie
    {
        molWeight       28.05400;
    }
    rfProperties
    {
        penelouxShift   true;
        Tc              305.3;
        Pc              4.87e+06;
        Vc              147.3168;
        omega           0.099;
        kappai          0;
        miui            0;
        sigmvi          41.04;
    }
    thermodynamics
    {
        Tlow            300;
        Thigh           5000;
        Tcommon         1000;
        highCpCoeffs    ( 3.52842 0.01148518 -4.41839e-06 7.8446e-10 -5.267e-14 4428.3 2.23 );
        lowCpCoeffs     ( -0.86149 0.02796163 -3.388677e-05 2.785152e-08 -9.73788e-12 5573 24.211 );
    }
    transport
    {
        As              1.18412e-06;
        Ts              310.031;
    }
    elements
    {
        C   2;
        H   4;
    }
}

C3H6
{
    specie
    {
        molWeight       42.08100;
    }
    rfProperties
    {
        penelouxShift   true;
        Tc              369.8;
        Pc              4.25e+06;
        Vc              200.9160;
        omega           0.152;
        kappai          0;
        miui            0;
        sigmvi          61.56;
    }
    thermodynamics
    {
        Tlow            300;
        Thigh           5000;
        Tcommon         1000;
        highCpCoeffs    ( 6.7213974 0.014931757 -4.9652353e-06 7.2510753e-10 -3.8001476e-14 -924.53149 -12.155617 );
        lowCpCoeffs     ( 1.4575157 0.021142263 4.0468012e-06 -1.6319003e-08 7.0475153e-12 1074.0208 17.39946 );
    }
    transport
    {
        As              9.2248e-07;
        Ts              295.345;
    }
    elements
    {
        C   3;
        H   6;
    }
}

AC5H10
{
    specie
    {
        molWeight       70.13500;
    }
    rfProperties
    {
        penelouxShift   true;
        Tc              469.7;
        Pc              3.37e+06;
        Vc              311.1579;
        omega           0.251;
        kappai          0;
        miui            0;
        sigmvi          102.6;
    }
    thermodynamics
    {
        Tlow            300;
        Thigh           5000;
        Tcommon         1000;
        highCpCoeffs    ( 10.90584 0.02720897 -1.009468e-05 1.801495e-09 -1.225304e-13 -8145.486 -30.99887 );
        lowCpCoeffs     ( 0.7436035 0.04357902 -4.406364e-07 -2.85538e-08 1.437091e-11 -4696.15 24.49738 );
    }
    transport
    {
        As              9.96259e-07;
        Ts              407.17;
    }
    elements
    {
        C   5;
        H   10;
    }
}

NC3H7
{
    specie
    {
        molWeight       43.08900;
    }
    rfProperties
    {
        penelouxShift   true;
        Tc              369.8;
        Pc              4.25e+06;
        Vc              200.9160;
        omega           0.152;
        kappai          0;
        miui            0;
        sigmvi          63.87;
    }
    thermodynamics
    {
        Tlow            300;
        Thigh           5000;
        Tcommon         1000;
        highCpCoeffs    ( 7.7026987 0.016044203 -5.283322e-06 7.629859e-10 -3.9392284e-14 8298.4336 -15.48018 );
        lowCpCoeffs     ( 1.0515518 0.02599198 2.380054e-06 -1.9609569e-08 9.373247e-12 10631.863 21.122559 );
    }
    transport
    {
        As              9.33463e-07;
        Ts              295.345;
    }
    elements
    {
        C   3;
        H   7;
    }
}

C4H73
{
    specie
    {
        molWeight       55.10000;
    }
    rfProperties
    {
        penelouxShift   true;
        Tc              419.6;
        Pc              4.02e+06;
        Vc              237.6140;
        omega           0.194;
        kappai          0;
        miui            0;
        sigmvi          79.77;
    }
    thermodynamics
    {
        Tlow            300;
        Thigh           5000;
        Tcommon         1000;
        highCpCoeffs    ( 11.184356 0.014457868 -4.485263e-06 7.3693834e-10 -4.8752824e-14 17987.671 -32.095703 );
        lowCpCoeffs     ( 2.1544552 0.021568453 2.9077822e-05 -5.471983e-08 2.3710092e-11 21387.008 18.934394 );
    }
    transport
    {
        As              9.68958e-07;
        Ts              386.784;
    }
    elements
    {
        C   4;
        H   7;
    }
}

C2H5O2
{
    specie
    {
        molWeight       61.06000;
    }
    rfProperties
    {
        penelouxShift   true;
        Tc              466;
        Pc              5.57e+06;
        Vc              184.1938;
        omega           0.291;
        kappai          0;
        miui            0;
        sigmvi          55.57;
    }
    thermodynamics
    {
        Tlow            300;
        Thigh           5000;
        Tcommon         1000;
        highCpCoeffs    ( 7.827541 0.01534706 -5.81087e-06 1.046507e-09 -7.152054e-14 -4552.71 -12.7268 );
        lowCpCoeffs     ( 3.939018 0.01399149 2.17208e-05 -3.613748e-08 1.482491e-11 -2846.904 10.39447 );
    }
    transport
    {
        As              1.37397e-06;
        Ts              418.198;
    }
    elements
    {
        C   2;
        H   5;
        O   2;
    }
}

DC8H17
{
    specie
    {
        molWeight       113.22400;
    }
    rfProperties
    {
        penelouxShift   true;
        Tc              568.7;
        Pc              2.49e+06;
        Vc              483.9821;
        omega           0.398;
        kappai          0;
        miui            0;
        sigmvi          166.5;
    }
    thermodynamics
    {
        Tlow            300;
        Thigh           5000;
        Tcommon         1000;
        highCpCoeffs    ( 20.41072 0.045040004 -1.7019969e-05 2.9367696e-09 -1.9026035e-13 -12995.057 -82.37771 );
        lowCpCoeffs     ( -5.585172 0.12252448 -0.00011611086 7.2648689e-08 -2.2299874e-11 -5717.1636 51.546617 );
    }
    transport
    {
        As              8.95579e-07;
        Ts              484.523;
    }
    elements
    {
        C   8;
        H   17;
    }
}

BPHC3H6
{
    specie
    {
        molWeight       119.18700;
    }
    rfProperties
    {
        penelouxShift   true;
        Tc              638.4;
        Pc              3.2e+06;
        Vc              431.0668;
        omega           0.344;
        kappai          0;
        miui            0;
        sigmvi          168.5;
    }
    thermodynamics
    {
        Tlow            300;
        Thigh           5000;
        Tcommon         1000;
        highCpCoeffs    ( 21.12985 0.02742501 -8.078727e-06 1.166276e-09 -6.72191e-14 14768.51 -85.1025 );
        lowCpCoeffs     ( -4.289135 0.09421939 -7.348192e-05 3.08637e-08 -5.723925e-12 22298.36 47.90789 );
    }
    transport
    {
        As              9.52592e-07;
        Ts              491.502;
    }
    elements
    {
        C   9;
        H   11;
    }
}

TOLUEN
{
    specie
    {
        molWeight       92.14100;
    }
    rfProperties
    {
        penelouxShift   true;
        Tc              591.8;
        Pc              4.106e+06;
        Vc              320.3247;
        omega           0.264;
        kappai          0;
        miui            0;
        sigmvi          129.8;
    }
    thermodynamics
    {
        Tlow            200;
        Thigh           6000;
        Tcommon         1000;
        highCpCoeffs    ( 12.940034 0.026691287 -9.6838505e-06 1.5738629e-09 -9.4663601e-14 -697.64908 -46.728785 );
        lowCpCoeffs     ( 1.6152663 0.021099438 8.5366018e-05 -1.3261066e-07 5.5956604e-11 4075.63 20.28221 );
    }
    transport
    {
        As              1.25495e-06;
        Ts              386.784;
    }
    elements
    {
        C   7;
        H   8;
    }
}

CPHC3H6
{
    specie
    {
        molWeight       119.18700;
    }
    rfProperties
    {
        penelouxShift   true;
        Tc              638.4;
        Pc              3.2e+06;
        Vc              431.0668;
        omega           0.344;
        kappai          0;
        miui            0;
        sigmvi          168.5;
    }
    thermodynamics
    {
        Tlow            300;
        Thigh           5000;
        Tcommon         1000;
        highCpCoeffs    ( 20.35102 0.02874172 -8.635462e-06 1.262156e-09 -7.324088e-14 8065.506 -81.77301 );
        lowCpCoeffs     ( -3.788371 0.08974992 -6.462414e-05 2.437379e-08 -4.071843e-12 15385.5 45.25791 );
    }
    transport
    {
        As              9.52592e-07;
        Ts              491.502;
    }
    elements
    {
        C   9;
        H   11;
    }
}

H
{
    specie
    {
        molWeight       1.00800;
    }
    rfProperties
    {
        penelouxShift   true;
        Tc              181.1;
        Pc              2.77e+07;
        Vc              15.8217;
        omega           0.0085;
        kappai          0;
        miui            0;
        sigmvi          2.31;
    }
    thermodynamics
    {
        Tlow            300;
        Thigh           5000;
        Tcommon         5000;
        highCpCoeffs    ( 2.5 0 0 0 0 25471.6 -0.46 );
        lowCpCoeffs     ( 2.5 0 0 0 0 25471.6 -0.46 );
    }
    transport
    {
        As              8.67342e-07;
        Ts              174.27;
    }
    elements
    {
        H   1;
    }
}

AC3H5
{
    specie
    {
        molWeight       41.07300;
    }
    rfProperties
    {
        penelouxShift   true;
        Tc              365.6;
        Pc              4.67e+06;
        Vc              181.3443;
        omega           0.142;
        kappai          0;
        miui            0;
        sigmvi          59.25;
    }
    thermodynamics
    {
        Tlow            300;
        Thigh           5000;
        Tcommon         1000;
        highCpCoeffs    ( 9.651539 0.008075596 -7.965424e-07 -4.650696e-10 8.603281e-14 15300.955 -26.86773 );
        lowCpCoeffs     ( 2.276486 0.01985564 1.1238421e-06 -1.0145757e-08 3.441342e-12 17894.96 13.725151 );
    }
    transport
    {
        As              9.62253e-07;
        Ts              288.192;
    }
    elements
    {
        C   3;
        H   5;
    }
}

HO2
{
    specie
    {
        molWeight       33.00600;
    }
    rfProperties
    {
        penelouxShift   true;
        Tc              134.2;
        Pc              4.28e+06;
        Vc              75.8443;
        omega           0.0085;
        kappai          0;
        miui            0;
        sigmvi          14.53;
    }
    thermodynamics
    {
        Tlow            300;
        Thigh           5000;
        Tcommon         1000;
        highCpCoeffs    ( 4.07219 0.0021313 -5.3081e-07 6.112e-11 -2.84e-15 -158 3.476 );
        lowCpCoeffs     ( 2.97996 0.0049967 -3.791e-06 2.35419e-09 -8.089e-13 176.2 9.223 );
    }
    transport
    {
        As              1.79144e-06;
        Ts              144.129;
    }
    elements
    {
        H   1;
        O   2;
    }
}

CH3
{
    specie
    {
        molWeight       15.03500;
    }
    rfProperties
    {
        penelouxShift   true;
        Tc              190.6;
        Pc              4.6e+06;
        Vc              100.1547;
        omega           0.011;
        kappai          0;
        miui            0;
        sigmvi          22.83;
    }
    thermodynamics
    {
        Tlow            300;
        Thigh           5000;
        Tcommon         1000;
        highCpCoeffs    ( 2.84405 0.00613797 -2.23035e-06 3.7852e-10 -2.452e-14 16437.8 5.453 );
        lowCpCoeffs     ( 2.43044 0.0111241 -1.68022e-05 1.621829e-08 -5.86495e-12 16423.8 6.79 );
    }
    transport
    {
        As              9.75395e-07;
        Ts              173.407;
    }
    elements
    {
        C   1;
        H   3;
    }
}

C2H3
{
    specie
    {
        molWeight       27.04600;
    }
    rfProperties
    {
        penelouxShift   true;
        Tc              282.3;
        Pc              5.04e+06;
        Vc              132.1526;
        omega           0.087;
        kappai          0;
        miui            0;
        sigmvi          38.73;
    }
    thermodynamics
    {
        Tlow            300;
        Thigh           5000;
        Tcommon         1000;
        highCpCoeffs    ( 3.647653 0.008033778 -2.764499e-06 4.75309e-10 -3.164408e-14 34468.83 4.72278 );
        lowCpCoeffs     ( 2.138811 0.008718222 3.85898e-06 -9.365915e-09 4.010498e-12 35079.5 13.41918 );
    }
    transport
    {
        As              1.10001e-06;
        Ts              235.072;
    }
    elements
    {
        C   2;
        H   3;
    }
}

BPHPROPY
{
    specie
    {
        molWeight       119.18700;
    }
    rfProperties
    {
        penelouxShift   true;
        Tc              638.4;
        Pc              3.2e+06;
        Vc              431.0668;
        omega           0.344;
        kappai          0;
        miui            0;
        sigmvi          168.5;
    }
    thermodynamics
    {
        Tlow            300;
        Thigh           5000;
        Tcommon         1000;
        highCpCoeffs    ( 18.77347 0.03201749 -1.016776e-05 1.548996e-09 -9.264237e-14 14424.04 -72.62258 );
        lowCpCoeffs     ( -6.195319 0.1051165 -8.949943e-05 4.037402e-08 -7.717949e-12 21106.05 55.38723 );
    }
    transport
    {
        As              9.52592e-07;
        Ts              491.502;
    }
    elements
    {
        C   9;
        H   11;
    }
}

STYREN
{
    specie
    {
        molWeight       104.15200;
    }
    rfProperties
    {
        penelouxShift   true;
        Tc              648;
        Pc              3.99e+06;
        Vc              356.8061;
        omega           0.297;
        kappai          0;
        miui            0;
        sigmvi          145.7;
    }
    thermodynamics
    {
        Tlow            300;
        Thigh           5000;
        Tcommon         1000;
        highCpCoeffs    ( 14.57132 0.02860189 -1.094592e-05 1.986668e-09 -1.365103e-13 10602.53 -53.34605 );
        lowCpCoeffs     ( -4.726091 0.0811451 -5.870096e-05 1.433087e-08 2.028527e-12 16027.63 46.63407 );
    }
    transport
    {
        As              1.33424e-06;
        Ts              386.784;
    }
    elements
    {
        C   8;
        H   8;
    }
}

OH
{
    specie
    {
        molWeight       17.00700;
    }
    rfProperties
    {
        penelouxShift   true;
        Tc              99.94;
        Pc              6.33e+06;
        Vc              38.2014;
        omega           0.0085;
        kappai          0;
        miui            0;
        sigmvi          8.42;
    }
    thermodynamics
    {
        Tlow            300;
        Thigh           5000;
        Tcommon         1000;
        highCpCoeffs    ( 2.88273 0.00101397 -2.2769e-07 2.175e-11 -5.1e-16 3886.9 5.59571 );
        lowCpCoeffs     ( 3.63727 0.00018509 -1.67616e-06 2.3872e-09 -8.4314e-13 3606.8 1.35886 );
    }
    transport
    {
        As              2.10057e-06;
        Ts              125.687;
    }
    elements
    {
        H   1;
        O   1;
    }
}

O
{
    specie
    {
        molWeight       15.99900;
    }
    rfProperties
    {
        penelouxShift   true;
        Tc              99.94;
        Pc              6.33e+06;
        Vc              38.2014;
        omega           0.0085;
        kappai          0;
        miui            0;
        sigmvi          6.11;
    }
    thermodynamics
    {
        Tlow            300;
        Thigh           5000;
        Tcommon         1000;
        highCpCoeffs    ( 2.54206 -2.755e-05 -3.1e-09 4.55e-12 -4.4e-16 29230.8 4.92 );
        lowCpCoeffs     ( 2.94643 -0.00163817 2.42103e-06 -1.60284e-09 3.8907e-13 29147.6 2.964 );
    }
    transport
    {
        As              2.03737e-06;
        Ts              125.687;
    }
    elements
    {
        O   1;
    }
}

BC10H21
{
    specie
    {
        molWeight       141.27800;
    }
    rfProperties
    {
        penelouxShift   true;
        Tc              617.8;
        Pc              2.11e+06;
        Vc              600.1233;
        omega           0.488;
        kappai          0;
        miui            0;
        sigmvi          207.5;
    }
    thermodynamics
    {
        Tlow            300;
        Thigh           5000;
        Tcommon         1000;
        highCpCoeffs    ( 28.72122 0.04529658 -1.341886e-05 1.942622e-09 -1.120469e-13 -19988.69 -116.2727 );
        lowCpCoeffs     ( -1.728695 0.1222812 -8.58913e-05 3.409777e-08 -6.321386e-12 -10670.55 44.15336 );
    }
    transport
    {
        As              8.5947e-07;
        Ts              518.352;
    }
    elements
    {
        C   10;
        H   21;
    }
}

H2
{
    specie
    {
        molWeight       2.01600;
    }
    rfProperties
    {
        penelouxShift   true;
        Tc              33.18;
        Pc              1.3e+06;
        Vc              66.2556;
        omega           -0.22;
        kappai          0;
        miui            0;
        sigmvi          6.12;
    }
    thermodynamics
    {
        Tlow            300;
        Thigh           5000;
        Tcommon         1000;
        highCpCoeffs    ( 2.99142 0.00070006 -5.634e-08 -9.23e-12 1.58e-15 -835 -1.355 );
        lowCpCoeffs     ( 3.29812 0.00082494 -8.143e-07 -9.475e-11 4.1349e-13 -1012.5 -3.294 );
    }
    transport
    {
        As              7.09448e-07;
        Ts              109.535;
    }
    elements
    {
        H   2;
    }
}

CC10H21
{
    specie
    {
        molWeight       141.27800;
    }
    rfProperties
    {
        penelouxShift   true;
        Tc              617.8;
        Pc              2.11e+06;
        Vc              600.1233;
        omega           0.488;
        kappai          0;
        miui            0;
        sigmvi          207.5;
    }
    thermodynamics
    {
        Tlow            300;
        Thigh           5000;
        Tcommon         1000;
        highCpCoeffs    ( 28.94334 0.04486409 -1.322706e-05 1.908301e-09 -1.098115e-13 -20028.92 -117.403 );
        lowCpCoeffs     ( -2.780884 0.129736 -0.0001026437 4.948318e-08 -1.141322e-11 -10568.15 48.54409 );
    }
    transport
    {
        As              8.5947e-07;
        Ts              518.352;
    }
    elements
    {
        C   10;
        H   21;
    }
}

DC10H21
{
    specie
    {
        molWeight       141.27800;
    }
    rfProperties
    {
        penelouxShift   true;
        Tc              617.8;
        Pc              2.11e+06;
        Vc              600.1233;
        omega           0.488;
        kappai          0;
        miui            0;
        sigmvi          207.5;
    }
    thermodynamics
    {
        Tlow            300;
        Thigh           5000;
        Tcommon         1000;
        highCpCoeffs    ( 28.94334 0.04486409 -1.322706e-05 1.908301e-09 -1.098115e-13 -20028.92 -117.403 );
        lowCpCoeffs     ( -2.780884 0.129736 -0.0001026437 4.948318e-08 -1.141322e-11 -10568.15 48.54409 );
    }
    transport
    {
        As              8.5947e-07;
        Ts              518.352;
    }
    elements
    {
        C   10;
        H   21;
    }
}

EC10H21
{
    specie
    {
        molWeight       141.27800;
    }
    rfProperties
    {
        penelouxShift   true;
        Tc              617.8;
        Pc              2.11e+06;
        Vc              600.1233;
        omega           0.488;
        kappai          0;
        miui            0;
        sigmvi          207.5;
    }
    thermodynamics
    {
        Tlow            300;
        Thigh           5000;
        Tcommon         1000;
        highCpCoeffs    ( 28.94334 0.04486409 -1.322706e-05 1.908301e-09 -1.098115e-13 -20028.92 -117.403 );
        lowCpCoeffs     ( -2.780884 0.129736 -0.0001026437 4.948318e-08 -1.141322e-11 -10568.15 48.54409 );
    }
    transport
    {
        As              8.5947e-07;
        Ts              518.352;
    }
    elements
    {
        C   10;
        H   21;
    }
}

AC9H17C
{
    specie
    {
        molWeight       125.23500;
    }
    rfProperties
    {
        penelouxShift   true;
        Tc              629;
        Pc              2.85e+06;
        Vc              475.1753;
        omega           0.354;
        kappai          0;
        miui            0;
        sigmvi          182.4;
    }
    thermodynamics
    {
        Tlow            298;
        Thigh           5000;
        Tcommon         1000;
        highCpCoeffs    ( 24.50863 0.04260514 -1.383089e-05 2.137396e-09 -1.289444e-13 -11151.69 -108.1969 );
        lowCpCoeffs     ( -8.456647 0.1250355 -9.126209e-05 3.722514e-08 -7.261572e-12 -936.6215 65.89159 );
    }
    transport
    {
        As              9.76462e-07;
        Ts              491.502;
    }
    elements
    {
        C   9;
        H   17;
    }
}

AC10H21
{
    specie
    {
        molWeight       141.27800;
    }
    rfProperties
    {
        penelouxShift   true;
        Tc              617.8;
        Pc              2.11e+06;
        Vc              600.1233;
        omega           0.488;
        kappai          0;
        miui            0;
        sigmvi          207.5;
    }
    thermodynamics
    {
        Tlow            300;
        Thigh           5000;
        Tcommon         1000;
        highCpCoeffs    ( 29.2963 0.04484675 -1.327873e-05 1.922447e-09 -1.109352e-13 -19652.53 -119.6571 );
        lowCpCoeffs     ( -2.34577 0.125761 -9.047197e-05 3.657591e-08 -6.851028e-12 -10051.87 46.73484 );
    }
    transport
    {
        As              8.5947e-07;
        Ts              518.352;
    }
    elements
    {
        C   10;
        H   21;
    }
}

H2O2
{
    specie
    {
        molWeight       34.01400;
    }
    rfProperties
    {
        penelouxShift   true;
        Tc              722;
        Pc              2.06e+07;
        Vc              75.0275;
        omega           0.37;
        kappai          0;
        miui            0;
        sigmvi          16.84;
    }
    thermodynamics
    {
        Tlow            300;
        Thigh           5000;
        Tcommon         1000;
        highCpCoeffs    ( 4.57317 0.00433614 -1.47469e-06 2.3489e-10 -1.432e-14 -18007 0.501 );
        lowCpCoeffs     ( 3.38875 0.00656923 -1.485e-07 -4.62581e-09 2.47151e-12 -17663.1 6.785 );
    }
    transport
    {
        As              1.81859e-06;
        Ts              144.129;
    }
    elements
    {
        H   2;
        O   2;
    }
}

CH3O2
{
    specie
    {
        molWeight       47.03300;
    }
    rfProperties
    {