FoamFile { format ascii; class volScalarField; object PHC3H7; }
dimensions [0 0 0 0 0 0 0];
internalField uniform 0;
boundaryField
{
    fuelInlet     { type fixedValue; value uniform 0.13140; }
    oxidizerInlet { type fixedValue; value uniform 0; }
    upperOutflow  { type zeroGradient; }
    lowerOutflow  { type zeroGradient; }
    frontAndBack  { type empty; }
}
