/*--------------------------------*- C++ -*----------------------------------*\
  gpuMulticomponentFluid — GPU 수송 스위치
  gpuYEqn/gpuEEqn: Y 배치 + 에너지 방정식을 디바이스에서 조립·솔브
  gpuCheck: CPU fvMatrix와 계수 대조 출력 (검증용, 느림)
\*----------------------------------------------------------------------------*/
FoamFile
{
    format      ascii;
    class       dictionary;
    object      gpuProperties;
}
// * * * * * * * * * * * * * * * * * * * * * * * * * * * * * * * * * * * * * //

gpuYEqn   on;
gpuEEqn   on;
gpuCheck  off;

// ************************************************************************* //
