/*--------------------------------*- C++ -*----------------------------------*\
| FGM (FPV + beta-PDF) lookup table  --  04_build_fgm_table.py                |
| source flamelets: flamelets_synth.npz                                    |
| P = 1e+07 Pa                                                       |
| axes: Z~ (nZ=51), gZ=Zvar/(Z~(1-Z~)) (nGz=11), C~ (nC=41)                |
| flat C-order: idx = (iZ*nGz + iGz)*nC + iC                                  |
| tabulated: sourcePV (omega_C), T, Y_<species> (for SRK+Chung/Ely thermo)   |
\*---------------------------------------------------------------------------*/
FoamFile
{
    version     2.0;
    format      ascii;
    class       dictionary;
    location    "constant";
    object      fgmProperties;
}
// * * * * * * * * * * * * * * * * * * * * * * * * * * * * * * * * * * * * * //

nZ      51;
nGz     11;
nC      41;

Z
(
    0.00000000e+00
    2.00000000e-02
    4.00000000e-02
    6.00000000e-02
    8.00000000e-02
    1.00000000e-01
    1.20000000e-01
    1.40000000e-01
    1.60000000e-01
    1.80000000e-01
    2.00000000e-01
    2.20000000e-01
    2.40000000e-01
    2.60000000e-01
    2.80000000e-01
    3.00000000e-01
    3.20000000e-01
    3.40000000e-01
    3.60000000e-01
    3.80000000e-01
    4.00000000e-01
    4.20000000e-01
    4.40000000e-01
    4.60000000e-01
    4.80000000e-01
    5.00000000e-01
    5.20000000e-01
    5.40000000e-01
    5.60000000e-01
    5.80000000e-01
    6.00000000e-01
    6.20000000e-01
    6.40000000e-01
    6.60000000e-01
    6.80000000e-01
    7.00000000e-01
    7.20000000e-01
    7.40000000e-01
    7.60000000e-01
    7.80000000e-01
    8.00000000e-01
    8.20000000e-01
    8.40000000e-01
    8.60000000e-01
    8.80000000e-01
    9.00000000e-01
    9.20000000e-01
    9.40000000e-01
    9.60000000e-01
    9.80000000e-01
    1.00000000e+00
);

gZ
(
    0.00000000e+00
    9.00000000e-02
    1.80000000e-01
    2.70000000e-01
    3.60000000e-01
    4.50000000e-01
    5.40000000e-01
    6.30000000e-01
    7.20000000e-01
    8.10000000e-01
    9.00000000e-01
);

C
(
    0.00000000e+00
    7.49934076e-03
    1.49986815e-02
    2.24980223e-02
    2.99973630e-02
    3.74967038e-02
    4.49960446e-02
    5.24953853e-02
    5.99947261e-02
    6.74940669e-02
    7.49934076e-02
    8.24927484e-02
    8.99920891e-02
    9.74914299e-02
    1.04990771e-01
    1.12490111e-01
    1.19989452e-01
    1.27488793e-01
    1.34988134e-01
    1.42487474e-01
    1.49986815e-01
    1.57486156e-01
    1.64985497e-01
    1.72484838e-01
    1.79984178e-01
    1.87483519e-01
    1.94982860e-01
    2.02482201e-01
    2.09981541e-01
    2.17480882e-01
    2.24980223e-01
    2.32479564e-01
    2.39978904e-01
    2.47478245e-01
    2.54977586e-01
    2.62476927e-01
    2.69976267e-01
    2.77475608e-01
    2.84974949e-01
    2.92474290e-01
    2.99973630e-01
);

sourcePV
(
    0.00000000e+00
    0.00000000e+00
    0.00000000e+00
    0.00000000e+00
    0.00000000e+00
    0.00000000e+00
    0.00000000e+00
    0.00000000e+00
    0.00000000e+00
    0.00000000e+00
    0.00000000e+00
    0.00000000e+00
    0.00000000e+00
    0.00000000e+00
    0.00000000e+00
    0.00000000e+00
    0.00000000e+00
    0.00000000e+00
    0.00000000e+00
    0.00000000e+00
    0.00000000e+00
    0.00000000e+00
    0.00000000e+00
    0.00000000e+00
    0.00000000e+00
    0.00000000e+00
    0.00000000e+00
    0.00000000e+00
    0.00000000e+00
    0.00000000e+00
    0.00000000e+00
    0.00000000e+00
    0.00000000e+00
    0.00000000e+00
    0.00000000e+00
    0.00000000e+00
    0.00000000e+00
    0.00000000e+00
    0.00000000e+00
    0.00000000e+00
    0.00000000e+00
    0.00000000e+00
    0.00000000e+00
    0.00000000e+00
    0.00000000e+00
    0.00000000e+00
    0.00000000e+00
    0.00000000e+00
    0.00000000e+00
    0.00000000e+00
    0.00000000e+00
    0.00000000e+00
    0.00000000e+00
    0.00000000e+00
    0.00000000e+00
    0.00000000e+00
    0.00000000e+00
    0.00000000e+00
    0.00000000e+00
    0.00000000e+00
    0.00000000e+00
    0.00000000e+00
    0.00000000e+00
    0.00000000e+00
    0.00000000e+00
    0.00000000e+00
    0.00000000e+00
    0.00000000e+00
    0.00000000e+00
    0.00000000e+00
    0.00000000e+00
    0.00000000e+00
    0.00000000e+00
    0.00000000e+00
    0.00000000e+00
    0.00000000e+00
    0.00000000e+00
    0.00000000e+00
    0.00000000e+00
    0.00000000e+00
    0.00000000e+00
    0.00000000e+00
    0.00000000e+00
    0.00000000e+00
    0.00000000e+00
    0.00000000e+00
    0.00000000e+00
    0.00000000e+00
    0.00000000e+00
    0.00000000e+00
    0.00000000e+00
    0.00000000e+00
    0.00000000e+00
    0.00000000e+00
    0.00000000e+00
    0.00000000e+00
    0.00000000e+00
    0.00000000e+00
    0.00000000e+00
    0.00000000e+00
    0.00000000e+00
    0.00000000e+00
    0.00000000e+00
    0.00000000e+00
    0.00000000e+00
    0.00000000e+00
    0.00000000e+00
    0.00000000e+00
    0.00000000e+00
    0.00000000e+00
    0.00000000e+00
    0.00000000e+00
    0.00000000e+00
    0.00000000e+00
    0.00000000e+00
    0.00000000e+00
    0.00000000e+00
    0.00000000e+00
    0.00000000e+00
    0.00000000e+00
    0.00000000e+00
    0.00000000e+00
    0.00000000e+00
    0.00000000e+00
    0.00000000e+00
    0.00000000e+00
    0.00000000e+00
    0.00000000e+00
    0.00000000e+00
    0.00000000e+00
    0.00000000e+00
    0.00000000e+00
    0.00000000e+00
    0.00000000e+00
    0.00000000e+00
    0.00000000e+00
    0.00000000e+00
    0.00000000e+00
    0.00000000e+00
    0.00000000e+00
    0.00000000e+00
    0.00000000e+00
    0.00000000e+00
    0.00000000e+00
    0.00000000e+00
    0.00000000e+00
    0.00000000e+00
    0.00000000e+00
    0.00000000e+00
    0.00000000e+00
    0.00000000e+00
    0.00000000e+00
    0.00000000e+00
    0.00000000e+00
    0.00000000e+00
    0.00000000e+00
    0.00000000e+00
    0.00000000e+00
    0.00000000e+00
    0.00000000e+00
    0.00000000e+00
    0.00000000e+00
    0.00000000e+00
    0.00000000e+00
    0.00000000e+00
    0.00000000e+00
    0.00000000e+00
    0.00000000e+00
    0.00000000e+00
    0.00000000e+00
    0.00000000e+00
    0.00000000e+00
    0.00000000e+00
    0.00000000e+00
    0.00000000e+00
    0.00000000e+00
    0.00000000e+00
    0.00000000e+00
    0.00000000e+00
    0.00000000e+00
    0.00000000e+00
    0.00000000e+00
    0.00000000e+00
    0.00000000e+00
    0.00000000e+00
    0.00000000e+00
    0.00000000e+00
    0.00000000e+00
    0.00000000e+00
    0.00000000e+00
    0.00000000e+00
    0.00000000e+00
    0.00000000e+00
    0.00000000e+00
    0.00000000e+00
    0.00000000e+00
    0.00000000e+00
    0.00000000e+00
    0.00000000e+00
    0.00000000e+00
    0.00000000e+00
    0.00000000e+00
    0.00000000e+00
    0.00000000e+00
    0.00000000e+00
    0.00000000e+00
    0.00000000e+00
    0.00000000e+00
    0.00000000e+00
    0.00000000e+00
    0.00000000e+00
    0.00000000e+00
    0.00000000e+00
    0.00000000e+00
    0.00000000e+00
    0.00000000e+00
    0.00000000e+00
    0.00000000e+00
    0.00000000e+00
    0.00000000e+00
    0.00000000e+00
    0.00000000e+00
    0.00000000e+00
    0.00000000e+00
    0.00000000e+00
    0.00000000e+00
    0.00000000e+00
    0.00000000e+00
    0.00000000e+00
    0.00000000e+00
    0.00000000e+00
    0.00000000e+00
    0.00000000e+00
    0.00000000e+00
    0.00000000e+00
    0.00000000e+00
    0.00000000e+00
    0.00000000e+00
    0.00000000e+00
    0.00000000e+00
    0.00000000e+00
    0.00000000e+00
    0.00000000e+00
    0.00000000e+00
    0.00000000e+00
    0.00000000e+00
    0.00000000e+00
    0.00000000e+00
    0.00000000e+00
    0.00000000e+00
    0.00000000e+00
    0.00000000e+00
    0.00000000e+00
    0.00000000e+00
    0.00000000e+00
    0.00000000e+00
    0.00000000e+00
    0.00000000e+00
    0.00000000e+00
    0.00000000e+00
    0.00000000e+00
    0.00000000e+00
    0.00000000e+00
    0.00000000e+00
    0.00000000e+00
    0.00000000e+00
    0.00000000e+00
    0.00000000e+00
    0.00000000e+00
    0.00000000e+00
    0.00000000e+00
    0.00000000e+00
    0.00000000e+00
    0.00000000e+00
    0.00000000e+00
    0.00000000e+00
    0.00000000e+00
    0.00000000e+00
    0.00000000e+00
    0.00000000e+00
    0.00000000e+00
    0.00000000e+00
    0.00000000e+00
    0.00000000e+00
    0.00000000e+00
    0.00000000e+00
    0.00000000e+00
    0.00000000e+00
    0.00000000e+00
    0.00000000e+00
    0.00000000e+00
    0.00000000e+00
    0.00000000e+00
    0.00000000e+00
    0.00000000e+00
    0.00000000e+00
    0.00000000e+00
    0.00000000e+00
    0.00000000e+00
    0.00000000e+00
    0.00000000e+00
    0.00000000e+00
    0.00000000e+00
    0.00000000e+00
    0.00000000e+00
    0.00000000e+00
    0.00000000e+00
    0.00000000e+00
    0.00000000e+00
    0.00000000e+00
    0.00000000e+00
    0.00000000e+00
    0.00000000e+00
    0.00000000e+00
    0.00000000e+00
    0.00000000e+00
    0.00000000e+00
    0.00000000e+00
    0.00000000e+00
    0.00000000e+00
    0.00000000e+00
    0.00000000e+00
    0.00000000e+00
    0.00000000e+00
    0.00000000e+00
    0.00000000e+00
    0.00000000e+00
    0.00000000e+00
    0.00000000e+00
    0.00000000e+00
    0.00000000e+00
    0.00000000e+00
    0.00000000e+00
    0.00000000e+00
    0.00000000e+00
    0.00000000e+00
    0.00000000e+00
    0.00000000e+00
    0.00000000e+00
    0.00000000e+00
    0.00000000e+00
    0.00000000e+00
    0.00000000e+00
    0.00000000e+00
    0.00000000e+00
    0.00000000e+00
    0.00000000e+00
    0.00000000e+00
    0.00000000e+00
    0.00000000e+00
    0.00000000e+00
    0.00000000e+00
    0.00000000e+00
    0.00000000e+00
    0.00000000e+00
    0.00000000e+00
    0.00000000e+00
    0.00000000e+00
    0.00000000e+00
    0.00000000e+00
    0.00000000e+00
    0.00000000e+00
    0.00000000e+00
    0.00000000e+00
    0.00000000e+00
    0.00000000e+00
    0.00000000e+00
    0.00000000e+00
    0.00000000e+00
    0.00000000e+00
    0.00000000e+00
    0.00000000e+00
    0.00000000e+00
    0.00000000e+00
    0.00000000e+00
    0.00000000e+00
    0.00000000e+00
    0.00000000e+00
    0.00000000e+00
    0.00000000e+00
    0.00000000e+00
    0.00000000e+00
    0.00000000e+00
    0.00000000e+00
    0.00000000e+00
    0.00000000e+00
    0.00000000e+00
    0.00000000e+00
    0.00000000e+00
    0.00000000e+00
    0.00000000e+00
    0.00000000e+00
    0.00000000e+00
    0.00000000e+00
    0.00000000e+00
    0.00000000e+00
    0.00000000e+00
    0.00000000e+00
    0.00000000e+00
    0.00000000e+00
    0.00000000e+00
    0.00000000e+00
    0.00000000e+00
    0.00000000e+00
    0.00000000e+00
    0.00000000e+00
    0.00000000e+00
    0.00000000e+00
    0.00000000e+00
    0.00000000e+00
    0.00000000e+00
    0.00000000e+00
    0.00000000e+00
    0.00000000e+00
    0.00000000e+00
    0.00000000e+00
    0.00000000e+00
    0.00000000e+00
    0.00000000e+00
    0.00000000e+00
    0.00000000e+00
    0.00000000e+00
    0.00000000e+00
    0.00000000e+00
    0.00000000e+00
    0.00000000e+00
    0.00000000e+00
    0.00000000e+00
    0.00000000e+00
    0.00000000e+00
    0.00000000e+00
    0.00000000e+00
    0.00000000e+00
    0.00000000e+00
    0.00000000e+00
    0.00000000e+00
    0.00000000e+00
    0.00000000e+00
    0.00000000e+00
    0.00000000e+00
    0.00000000e+00
    0.00000000e+00
    0.00000000e+00
    0.00000000e+00
    0.00000000e+00
    0.00000000e+00
    0.00000000e+00
    0.00000000e+00
    0.00000000e+00
    0.00000000e+00
    0.00000000e+00
    0.00000000e+00
    1.13036152e+01
    2.36891142e+00
    0.00000000e+00
    0.00000000e+00
    0.00000000e+00
    0.00000000e+00
    0.00000000e+00
    0.00000000e+00
    0.00000000e+00
    0.00000000e+00
    0.00000000e+00
    0.00000000e+00
    0.00000000e+00
    0.00000000e+00
    0.00000000e+00
    0.00000000e+00
    0.00000000e+00
    0.00000000e+00
    0.00000000e+00
    0.00000000e+00
    0.00000000e+00
    0.00000000e+00
    0.00000000e+00
    0.00000000e+00
    0.00000000e+00
    0.00000000e+00
    0.00000000e+00
    0.00000000e+00
    0.00000000e+00
    0.00000000e+00
    0.00000000e+00
    0.00000000e+00
    0.00000000e+00
    0.00000000e+00
    0.00000000e+00
    0.00000000e+00
    0.00000000e+00
    0.00000000e+00
    0.00000000e+00
    0.00000000e+00
    1.44936328e-19
    5.12003555e-02
    7.97520707e-02
    9.87865251e-02
    1.14229197e-01
    1.24422905e-01
    1.32626689e-01
    1.37181825e-01
    1.41266419e-01
    1.43032841e-01
    1.42994335e-01
    1.42884105e-01
    1.43059567e-01
    1.38555631e-01
    1.35700741e-01
    1.35709741e-01
    1.27439624e-01
    1.24404264e-01
    1.17244663e-01
    1.12129078e-01
    1.09586630e-01
    1.00190377e-01
    9.41412271e-02
    8.77163415e-02
    8.14255869e-02
    7.80309325e-02
    6.85074415e-02
    6.21984917e-02
    5.57928538e-02
    4.96137968e-02
    4.33967155e-02
    3.74383108e-02
    3.16971056e-02
    2.61941990e-02
    2.09592569e-02
    1.60440768e-02
    1.15629848e-02
    7.55301593e-03
    4.11209080e-03
    1.43013828e-03
    0.00000000e+00
    1.07488834e-19
    2.52704200e-02
    4.15921329e-02
    5.36395828e-02
    6.38803495e-02
    7.15410819e-02
    7.80509219e-02
    8.26536225e-02
    8.67105167e-02
    8.94424117e-02
    9.11326832e-02
    9.24256174e-02
    9.35218570e-02
    9.24577111e-02
    9.17649408e-02
    9.19404705e-02
    8.85334567e-02
    8.70252042e-02
    8.35491596e-02
    8.07538580e-02
    7.88614947e-02
    7.38372698e-02
    7.00886420e-02
    6.60349131e-02
    6.18950287e-02
    5.90410572e-02
    5.31191111e-02
    4.86708002e-02
    4.40658011e-02
    3.95286712e-02
    3.48947050e-02
    3.03732532e-02
    2.59245038e-02
    2.16020222e-02
    1.74261663e-02
    1.34513567e-02
    9.76875500e-03
    6.42901226e-03
    3.52848153e-03
    1.23572633e-03
    0.00000000e+00
    2.82306740e-19
    2.12851852e-02
    3.56716171e-02
    4.65665325e-02
    5.58952661e-02
    6.30621325e-02
    6.91940920e-02
    7.37054072e-02
    7.76473710e-02
    8.04333204e-02
    8.23089061e-02
    8.37319510e-02
    8.48814516e-02
    8.43125159e-02
    8.38990146e-02
    8.40108629e-02
    8.13777082e-02
    8.00571977e-02
    7.71730711e-02
    7.47276575e-02
    7.28853584e-02
    6.86176949e-02
    6.52486945e-02
    6.15973312e-02
    5.78302467e-02
    5.50361640e-02
    4.97984240e-02
    4.56957155e-02
    4.14364487e-02
    3.72206923e-02
    3.29068229e-02
    2.86846745e-02
    2.45130452e-02
    2.04519543e-02
    1.65191142e-02
    1.27678080e-02
    9.28260213e-03
    6.11577219e-03
    3.36071473e-03
    1.17809932e-03
    0.00000000e+00
    6.50175410e-18
    2.00148880e-02
    3.37640135e-02
    4.42670541e-02
    5.32624170e-02
    6.02375376e-02
    6.62075784e-02
    7.06598780e-02
    7.45254879e-02
    7.72977291e-02
    7.92080955e-02
    8.06422319e-02
    8.17725723e-02
    8.13591405e-02
    8.10164272e-02
    8.10643812e-02
    7.87020222e-02
    7.74205109e-02
    7.47403612e-02
    7.24036453e-02
    7.05515552e-02
    6.65635048e-02
    6.33242603e-02
    5.98142664e-02
    5.61801738e-02
    5.33916543e-02
    4.84217106e-02
    4.44490492e-02
    4.03230733e-02
    3.62327410e-02
    3.20465603e-02
    2.79460028e-02
    2.38887941e-02
    1.99376338e-02
    1.61089580e-02
    1.24551680e-02
    9.05770658e-03
    5.96923119e-03
    3.28129300e-03
    1.15050937e-03
    0.00000000e+00
    5.41296250e-17
    1.94972743e-02
    3.29668626e-02
    4.32899289e-02
    5.21196011e-02
    5.89936448e-02
    6.48715809e-02
    6.92819650e-02
    7.30930668e-02
    7.58423938e-02
    7.77541809e-02
    7.91764638e-02
    8.02790146e-02
    7.99304441e-02
    7.96079950e-02
    7.96053003e-02
    7.73709863e-02
    7.60949006e-02
    7.35094071e-02
    7.12172734e-02
    6.93473239e-02
    6.54980596e-02
    6.23182912e-02
    5.88749332e-02
    5.53044165e-02
    5.25111251e-02
    4.76801589e-02
    4.37726525e-02
    3.97147819e-02
    3.56891428e-02
    3.15699200e-02
    2.75339664e-02
    2.35382343e-02
    1.96468788e-02
    1.58755765e-02
    1.22761010e-02
    8.92806731e-03
    5.88423268e-03
    3.23492862e-03
    1.13430638e-03
    0.00000000e+00
    2.24040649e-16
    1.92616957e-02
    3.25870199e-02
    4.28116205e-02
    5.15433427e-02
    5.83542938e-02
    6.41714729e-02
    6.85501044e-02
    7.23201213e-02
    7.50472177e-02
    7.69512291e-02
    7.83572747e-02
    7.94338639e-02
    7.91166479e-02
    7.87982122e-02
    7.87560291e-02
    7.65931842e-02
    7.53130498e-02
    7.27794150e-02
    7.05084955e-02
    6.86214600e-02
    6.48532240e-02
    6.17056704e-02
    5.82994214e-02
    5.47647917e-02
    5.19649444e-02
    4.72181485e-02
    4.33489942e-02
    3.93318682e-02
    3.53452317e-02
    3.12669002e-02
    2.72707976e-02
    2.33133049e-02
    1.94594861e-02
    1.57245115e-02
    1.21596928e-02
    8.84344176e-03
    5.82852734e-03
    3.20441913e-03
    1.12360443e-03
    0.00000000e+00
    6.18195995e-16
    1.91429551e-02
    3.23802683e-02
    4.25404143e-02
    5.12041251e-02
    5.79687828e-02
    6.37399869e-02
    6.80918702e-02
    7.18282682e-02
    7.45346466e-02
    7.64278005e-02
    7.78173489e-02
    7.88710765e-02
    7.85704889e-02
    7.82502805e-02
    7.81769092e-02
    7.60592583e-02
    7.47729183e-02
    7.22718929e-02
    7.00128795e-02
    6.81118030e-02
    6.43974689e-02
    6.12706020e-02
    5.78887120e-02
    5.43780231e-02
    5.15729728e-02
    4.68841986e-02
    4.30415814e-02
    3.90529720e-02
    3.50938540e-02
    3.10446131e-02
    2.70770801e-02
    2.31472182e-02
    1.93206842e-02
    1.56122799e-02
    1.20729449e-02
    8.78020555e-03
    5.78679129e-03
    3.18149551e-03
    1.11554441e-03
    0.00000000e+00
    1.31707545e-15
    1.89908973e-02
    3.21068971e-02
    4.21729933e-02
    5.07450296e-02
    5.74416559e-02
    6.31491344e-02
    6.74577027e-02
    7.11485214e-02
    7.38236342e-02
    7.56965697e-02
    7.70643468e-02
    7.80934963e-02
    7.78035804e-02
    7.74810142e-02
    7.73830321e-02
    7.53061221e-02
    7.40195125e-02
    7.15524563e-02
    6.93114333e-02
    6.74080160e-02
    6.37496563e-02
    6.06520293e-02
    5.73034472e-02
    5.38266236e-02
    5.10309196e-02
    4.64069097e-02
    4.26021512e-02
    3.86537281e-02
    3.47340433e-02
    3.07259636e-02
    2.67989292e-02
    2.29087984e-02
    1.91213232e-02
    1.54509553e-02
    1.19480880e-02
    8.68919981e-03
    5.72671034e-03
    3.14844794e-03
    1.10393001e-03
    0.00000000e+00
    2.29346355e-15
    1.82675449e-02
    3.08644771e-02
    4.05295710e-02
    4.87504664e-02
    5.51745567e-02
    6.06449822e-02
    6.47774957e-02
    6.83109241e-02
    7.08727251e-02
    7.26669616e-02
    7.39717044e-02
    7.49471021e-02
    7.46728777e-02
    7.43577138e-02
    7.42436271e-02
    7.22638713e-02
    7.10184973e-02
    6.86568754e-02
    6.65022693e-02
    6.46593872e-02
    6.11623808e-02
    5.81881522e-02
    5.49743484e-02
    5.16370972e-02
    4.89405443e-02
    4.45169207e-02
    4.08658055e-02
    3.70775905e-02
    3.33166791e-02
    2.94716494e-02
    2.57045622e-02
    2.19726521e-02
    1.83395529e-02
    1.48189755e-02
    1.14592285e-02
    8.33347493e-03
    5.49215709e-03
    3.01946428e-03
    1.05867902e-03
    0.00000000e+00
    3.13178224e-15
    1.55264638e-02
    2.62157110e-02
    3.44142546e-02
    4.13805875e-02
    4.68250520e-02
    5.14577520e-02
    5.49590395e-02
    5.79481130e-02
    6.01154705e-02
    6.16335496e-02
    6.27334826e-02
    6.35513042e-02
    6.33205440e-02
    6.30486993e-02
    6.29377342e-02
    6.12674090e-02
    6.02036965e-02
    5.82047608e-02
    5.63747703e-02
    5.48009200e-02
    5.18448412e-02
    4.93217772e-02
    4.65964860e-02
    4.37663511e-02
    4.14707640e-02
    3.77294458e-02
    3.46339259e-02
    3.14227400e-02
    2.82345555e-02
    2.49755756e-02
    2.17828270e-02
    1.86197744e-02
    1.55407232e-02
    1.25571890e-02
    9.71008625e-03
    7.06128269e-03
    4.65363018e-03
    2.55843071e-03
    8.97011572e-04
    0.00000000e+00
    0.00000000e+00
    2.11574037e+01
    3.50794061e+01
    4.18535326e+01
    4.09483753e+01
    3.34035027e+01
    2.00030854e+01
    0.00000000e+00
    0.00000000e+00
    0.00000000e+00
    0.00000000e+00
    0.00000000e+00
    0.00000000e+00
    0.00000000e+00
    0.00000000e+00
    0.00000000e+00
    0.00000000e+00
    0.00000000e+00
    0.00000000e+00
    0.00000000e+00
    0.00000000e+00
    0.00000000e+00
    0.00000000e+00
    0.00000000e+00
    0.00000000e+00
    0.00000000e+00
    0.00000000e+00
    0.00000000e+00
    0.00000000e+00
    0.00000000e+00
    0.00000000e+00
    0.00000000e+00
    0.00000000e+00
    0.00000000e+00
    0.00000000e+00
    0.00000000e+00
    0.00000000e+00
    0.00000000e+00
    0.00000000e+00
    0.00000000e+00
    0.00000000e+00
    1.65854663e-18
    4.66729842e-01
    7.58852131e-01
    9.65492856e-01
    1.13578628e+00
    1.25635747e+00
    1.35561685e+00
    1.41894013e+00
    1.47421894e+00
    1.50578327e+00
    1.51850158e+00
    1.52739319e+00
    1.53571647e+00
    1.50119892e+00
    1.47853512e+00
    1.47883203e+00
    1.40403421e+00
    1.37437227e+00
    1.30495052e+00
    1.25329114e+00
    1.22452922e+00
    1.12988609e+00
    1.06584120e+00
    9.97283803e-01
    9.29160028e-01
    8.89406762e-01
    7.87554203e-01
    7.17465522e-01
    6.45759542e-01
    5.76092192e-01
    5.05577886e-01
    4.37555744e-01
    3.71546893e-01
    3.07955810e-01
    2.47125178e-01
    1.89727603e-01
    1.37110284e-01
    8.97987820e-02
    4.90257749e-02
    1.70927733e-02
    0.00000000e+00
    3.27832411e-19
    7.10523765e-02
    1.19125624e-01
    1.55324688e-01
    1.86243930e-01
    2.09821780e-01
    2.29960972e-01
    2.44587217e-01
    2.57410048e-01
    2.66338881e-01
    2.72190341e-01
    2.76667292e-01
    2.80344937e-01
    2.78002159e-01
    2.76416971e-01
    2.76948335e-01
    2.67622927e-01
    2.63274591e-01
    2.53351367e-01
    2.45181157e-01
    2.39382741e-01
    2.24776439e-01
    2.13606015e-01
    2.01496056e-01
    1.89058802e-01
    1.80235038e-01
    1.62587854e-01
    1.49110109e-01
    1.35126862e-01
    1.21317067e-01
    1.07190028e-01
    9.33799746e-02
    7.97627093e-02
    6.65142317e-02
    5.36960989e-02
    4.14793194e-02
    3.01436933e-02
    1.98510884e-02
    1.09025841e-02
    3.82048799e-03
    0.00000000e+00
    6.76807223e-19
    3.97467761e-02
    6.72715064e-02
    8.83193934e-02
    1.06374877e-01
    1.20371262e-01
    1.32369946e-01
    1.41302403e-01
    1.49084473e-01
    1.54660370e-01
    1.58494440e-01
    1.61400232e-01
    1.63716317e-01
    1.62857894e-01
    1.62192083e-01
    1.62391686e-01
    1.57571226e-01
    1.55062269e-01
    1.49643080e-01
    1.44980563e-01
    1.41376200e-01
    1.33284764e-01
    1.26803614e-01
    1.19772256e-01
    1.12498072e-01
    1.07019357e-01
    9.69612457e-02
    8.90084006e-02
    8.07445434e-02
    7.25559219e-02
    6.41714208e-02
    5.59583927e-02
    4.78355343e-02
    3.99235438e-02
    3.22565444e-02
    2.49394384e-02
    1.81368602e-02
    1.19526049e-02
    6.57009790e-03
    2.30370699e-03
    0.00000000e+00
    1.22880580e-17
    3.03191833e-02
    5.14440008e-02
    6.76699577e-02
    8.15772490e-02
    9.24159152e-02
    1.01700871e-01
    1.08671021e-01
    1.14710627e-01
    1.19074198e-01
    1.22114560e-01
    1.24394224e-01
    1.26176487e-01
    1.25643142e-01
    1.25168939e-01
    1.25228248e-01
    1.21699323e-01
    1.19734084e-01
    1.15662479e-01
    1.12078477e-01
    1.09192338e-01
    1.03104022e-01
    9.81123266e-02
    9.27009525e-02
    8.70895303e-02
    8.27428572e-02
    7.50985735e-02
    6.89516708e-02
    6.25646553e-02
    5.62288161e-02
    4.97425459e-02
    4.33861530e-02
    3.70934554e-02
    3.09635326e-02
    2.50216644e-02
    1.93495964e-02
    1.40735511e-02
    9.27610559e-03
    5.09988592e-03
    1.78837863e-03
    0.00000000e+00
    8.39885153e-17
    2.59978336e-02
    4.41164913e-02
    5.80489737e-02
    6.99694839e-02
    7.92788261e-02
    8.72424732e-02
    9.32420547e-02
    9.84190320e-02
    1.02170509e-01
    1.04796405e-01
    1.06747810e-01
    1.08252228e-01
    1.07837540e-01
    1.07430190e-01
    1.07415219e-01
    1.04465344e-01
    1.02748988e-01
    9.92968516e-02
    9.62164984e-02
    9.36772858e-02
    8.85231129e-02
    8.42384183e-02
    7.95975170e-02
    7.47806414e-02
    7.09887616e-02
    6.44895580e-02
    5.92116542e-02
    5.37292978e-02
    4.82883790e-02
    4.27200880e-02
    3.72629575e-02
    3.18583742e-02
    2.65941526e-02
    2.14913616e-02
    1.66202657e-02
    1.20884672e-02
    7.96781695e-03
    4.38080772e-03
    1.53620995e-03
    0.00000000e+00
    3.04333087e-16
    2.35652777e-02
    3.99590593e-02
    5.25646435e-02
    6.33307591e-02
    7.17454411e-02
    7.89337901e-02
    8.43586216e-02
    8.90246236e-02
    9.24095043e-02
    9.47826228e-02
    9.65334892e-02
    9.78689112e-02
    9.75101477e-02
    9.71329976e-02
    9.70726624e-02
    9.44451133e-02
    9.28694082e-02
    8.97678536e-02
    8.69755026e-02
    8.46389590e-02
    8.00181551e-02
    7.61417076e-02
    7.19461983e-02
    6.75899143e-02
    6.41246685e-02
    5.82860526e-02
    5.35139202e-02
    4.85585808e-02
    4.36396332e-02
    3.86071042e-02
    3.36752660e-02
    2.87900196e-02
    2.40323178e-02
    1.94207979e-02
    1.50189314e-02
    1.09234468e-02
    7.19977546e-03
    3.95853135e-03
    1.38808697e-03
    0.00000000e+00
    7.63440318e-16
    2.20075955e-02
    3.72799986e-02
    4.90178780e-02
    5.90270394e-02
    6.68523662e-02
    7.35290837e-02
    7.85723038e-02
    8.28991072e-02
    8.60389020e-02
    8.82410964e-02
    8.98563240e-02
    9.10778577e-02
    9.07500020e-02
    9.03889763e-02
    9.02982975e-02
    8.78756541e-02
    8.63906197e-02
    8.35146905e-02
    8.09091793e-02
    7.87062577e-02
    7.44307066e-02
    7.08207621e-02
    6.69161876e-02
    6.28613267e-02
    5.96122834e-02
    5.42042685e-02
    4.97639680e-02
    4.51545880e-02
    4.05785591e-02
    3.58981344e-02
    3.13117050e-02
    2.67681896e-02
    2.23438964e-02
    1.80558793e-02
    1.39631076e-02
    1.01551662e-02
    6.69319680e-03
    3.67995501e-03
    1.29035538e-03
    0.00000000e+00
    1.51267431e-15
    2.08078259e-02
    3.52102948e-02
    4.62728871e-02
    5.56932897e-02
    6.30586734e-02
    6.93363634e-02
    7.40804438e-02
    7.81423228e-02
    8.10897776e-02
    8.31568268e-02
    8.46655792e-02
    8.57987156e-02
    8.54915716e-02
    8.51421502e-02
    8.50305040e-02
    8.27623203e-02
    8.13487287e-02
    7.86455130e-02
    7.61851033e-02
    7.40890367e-02
    7.00780181e-02
    6.66752233e-02
    6.29966620e-02
    5.91762915e-02
    5.60986726e-02
    5.10225050e-02
    4.68406171e-02
    4.25006212e-02
    3.81917826e-02
    3.37856552e-02
    2.94683654e-02
    2.51912729e-02
    2.10269154e-02
    1.69911439e-02
    1.31394079e-02
    9.55576095e-03
    6.29794436e-03
    3.46257781e-03
    1.21409121e-03
    0.00000000e+00
    2.48066470e-15
    1.92080242e-02
    3.24700283e-02
    4.26502119e-02
    5.13089795e-02
    5.80784247e-02
    6.38430022e-02
    6.82004243e-02
    7.19250226e-02
    7.46272223e-02
    7.65216053e-02
    7.78987091e-02
    7.89270385e-02
    7.86442869e-02
    7.83149336e-02
    7.81924456e-02
    7.61148929e-02
    7.48032422e-02
    7.23200886e-02
    7.00519267e-02
    6.81084523e-02
    6.44302551e-02
    6.12983107e-02
    5.79140564e-02
    5.43993156e-02
    5.15562325e-02
    4.68999898e-02
    4.30540846e-02
    3.90636669e-02
    3.51017817e-02
    3.10512289e-02
    2.70826525e-02
    2.31509370e-02
    1.93232571e-02
    1.56140363e-02
    1.20741917e-02
    8.78078470e-03
    5.78701586e-03
    3.18160992e-03
    1.11553981e-03
    0.00000000e+00
    3.22147824e-15
    1.57596661e-02
    2.66155422e-02
    3.49436616e-02
    4.20199588e-02
    4.75515545e-02
    5.22583997e-02
    5.58167352e-02
    5.88540654e-02
    6.10570824e-02
    6.26008120e-02
    6.37191407e-02
    6.45501865e-02
    6.43180501e-02
    6.40428529e-02
    6.39291964e-02
    6.22353844e-02
    6.11548587e-02
    5.91259603e-02
    5.72675095e-02
    5.56678519e-02
    5.26670289e-02
    5.01043855e-02
    4.73363362e-02
    4.44616155e-02
    4.21286664e-02
    3.83294387e-02
    3.51849312e-02
    3.19228937e-02
    2.86841366e-02
    2.53734436e-02
    2.21299848e-02
    1.89166200e-02
    1.57885697e-02
    1.27575243e-02
    9.86505701e-03
    7.17401201e-03
    4.72794455e-03
    2.59930081e-03
    9.11344484e-04
    0.00000000e+00
    0.00000000e+00
    2.28762903e+01
    4.23153946e+01
    5.77253069e+01
    6.94842006e+01
    7.70516792e+01
    8.12409765e+01
    8.16075187e+01
    7.77995545e+01
    7.02646584e+01
    5.91009301e+01
    4.45273207e+01
    2.51008894e+01
    4.19330470e+00
    0.00000000e+00
    0.00000000e+00
    0.00000000e+00
    0.00000000e+00
    0.00000000e+00
    0.00000000e+00
    0.00000000e+00
    0.00000000e+00
    0.00000000e+00
    0.00000000e+00
    0.00000000e+00
    0.00000000e+00
    0.00000000e+00
    0.00000000e+00
    0.00000000e+00
    0.00000000e+00
    0.00000000e+00
    0.00000000e+00
    0.00000000e+00
    0.00000000e+00
    0.00000000e+00
    0.00000000e+00
    0.00000000e+00
    0.00000000e+00
    0.00000000e+00
    0.00000000e+00
    0.00000000e+00
    1.56994081e-17
    3.60860587e+00
    6.09188067e+00
    7.93676990e+00
    9.48328764e+00
    1.06367326e+01
    1.16047499e+01
    1.22780206e+01
    1.28606684e+01
    1.32411674e+01
    1.34588426e+01
    1.36200032e+01
    1.37502932e+01
    1.35519553e+01
    1.34161017e+01
    1.34262100e+01
    1.28700216e+01
    1.26312169e+01
    1.20736249e+01
    1.16404898e+01
    1.13725289e+01
    1.05801154e+01
    1.00161668e+01
    9.40787176e+00
    8.79452846e+00
    8.40981074e+00
    7.50457528e+00
    6.85788500e+00
    6.19153322e+00
    5.53969976e+00
    4.87630286e+00
    4.23246910e+00
    3.60354140e+00