FoamFile { format ascii; class dictionary; object momentumTransport; }

simulationType  RAS;

RAS
{
    model           kOmegaSST;
    turbulence      on;
    printCoeffs     on;
}
