/*--------------------------------*- C++ -*----------------------------------*\
  =========                 |
  \\      /  F ield         | OpenFOAM: The Open Source CFD Toolbox
   \\    /   O peration     | Website:  https://openfoam.org
    \\  /    A nd           | Version:  13
     \\/     M anipulation  |
\*---------------------------------------------------------------------------*/
FoamFile
{
    format      ascii;
    class       dictionary;
    object      decomposeParDict;
}
// KISTI GH200 smoke3 / 로컬 4랭크 파리티 게이트용
numberOfSubdomains  4;

decomposer      scotch;
distributor     scotch;

// ************************************************************************* //
