/*--------------------------------*- C++ -*----------------------------------*\
| FGM 4-D (FPV + beta-PDF + chi_st) lookup table  --                          |
|     04_build_fgm_table_4d.py                                                |
| source: make_synthetic_fgm_4d.py                                    |
| P_ref = 1e+07 Pa                                                   |
| axes: Z~ (nZ=11), gZ (nGz=5), C~ (nC=11), chi_st (nChi=5)  [1/s]      |
| flat C-order:  idx = ((iZ*nGz + iGz)*nC + iC)*nChi + iChi                  |
| tabulated: sourcePV (omega_C), T, Y_<species>                              |
\*---------------------------------------------------------------------------*/
FoamFile
{
    version     2.0;
    format      ascii;
    class       dictionary;
    location    "constant";
    object      fgmProperties;
}
// * * * * * * * * * * * * * * * * * * * * * * * * * * * * * * * * * * * * * //

nZ      11;
nGz     5;
nC      11;
nChi    5;

Z
(
    0.00000000e+00
    1.00000000e-01
    2.00000000e-01
    3.00000000e-01
    4.00000000e-01
    5.00000000e-01
    6.00000000e-01
    7.00000000e-01
    8.00000000e-01
    9.00000000e-01
    1.00000000e+00
);

gZ
(
    0.00000000e+00
    2.25000000e-01
    4.50000000e-01
    6.75000000e-01
    9.00000000e-01
);

C
(
    0.00000000e+00
    3.00000000e-02
    6.00000000e-02
    9.00000000e-02
    1.20000000e-01
    1.50000000e-01
    1.80000000e-01
    2.10000000e-01
    2.40000000e-01
    2.70000000e-01
    3.00000000e-01
);

chi
(
    1.00000000e-01
    8.40896415e-01
    7.07106781e+00
    5.94603558e+01
    5.00000000e+02
);

sourcePV
(
    0.00000000e+00
    0.00000000e+00
    0.00000000e+00
    0.00000000e+00
    0.00000000e+00
    1.65592098e+01
    1.65545937e+01
    1.62345844e+01
    6.85907672e+00
    1.63953228e-01
    2.62369992e+01
    2.62296853e+01
    2.57226511e+01
    1.08677644e+01
    2.59773309e-01
    2.90333682e+01
    2.90252748e+01
    2.84642004e+01
    1.20260630e+01
    2.87460241e-01
    2.49483168e+01
    2.49413622e+01
    2.44592320e+01
    1.03339725e+01
    2.47014026e-01
    1.39818451e+01
    1.39779474e+01
    1.37077461e+01
    5.79149302e+00
    1.38434663e-01
    0.00000000e+00
    0.00000000e+00
    0.00000000e+00
    0.00000000e+00
    0.00000000e+00
    0.00000000e+00
    0.00000000e+00
    0.00000000e+00
    0.00000000e+00
    0.00000000e+00
    0.00000000e+00
    0.00000000e+00
    0.00000000e+00
    0.00000000e+00
    0.00000000e+00
    0.00000000e+00
    0.00000000e+00
    0.00000000e+00
    0.00000000e+00
    0.00000000e+00
    0.00000000e+00
    0.00000000e+00
    0.00000000e+00
    0.00000000e+00
    0.00000000e+00
    0.00000000e+00
    0.00000000e+00
    0.00000000e+00
    0.00000000e+00
    0.00000000e+00
    1.65592098e+01
    1.65545937e+01
    1.62345844e+01
    6.85907672e+00
    1.63953228e-01
    2.62369992e+01
    2.62296853e+01
    2.57226511e+01
    1.08677644e+01
    2.59773309e-01
    2.90333682e+01
    2.90252748e+01
    2.84642004e+01
    1.20260630e+01
    2.87460241e-01
    2.49483168e+01
    2.49413622e+01
    2.44592320e+01
    1.03339725e+01
    2.47014026e-01
    1.39818451e+01
    1.39779474e+01
    1.37077461e+01
    5.79149302e+00
    1.38434663e-01
    0.00000000e+00
    0.00000000e+00
    0.00000000e+00
    0.00000000e+00
    0.00000000e+00
    0.00000000e+00
    0.00000000e+00
    0.00000000e+00
    0.00000000e+00
    0.00000000e+00
    0.00000000e+00
    0.00000000e+00
    0.00000000e+00
    0.00000000e+00
    0.00000000e+00
    0.00000000e+00
    0.00000000e+00
    0.00000000e+00
    0.00000000e+00
    0.00000000e+00
    0.00000000e+00
    0.00000000e+00
    0.00000000e+00
    0.00000000e+00
    0.00000000e+00
    0.00000000e+00
    0.00000000e+00
    0.00000000e+00
    0.00000000e+00
    0.00000000e+00
    1.65592098e+01
    1.65545937e+01
    1.62345844e+01
    6.85907672e+00
    1.63953228e-01
    2.62369992e+01
    2.62296853e+01
    2.57226511e+01
    1.08677644e+01
    2.59773309e-01
    2.90333682e+01
    2.90252748e+01
    2.84642004e+01
    1.20260630e+01
    2.87460241e-01
    2.49483168e+01
    2.49413622e+01
    2.44592320e+01
    1.03339725e+01
    2.47014026e-01
    1.39818451e+01
    1.39779474e+01
    1.37077461e+01
    5.79149302e+00
    1.38434663e-01
    0.00000000e+00
    0.00000000e+00
    0.00000000e+00
    0.00000000e+00
    0.00000000e+00
    0.00000000e+00
    0.00000000e+00
    0.00000000e+00
    0.00000000e+00
    0.00000000e+00
    0.00000000e+00
    0.00000000e+00
    0.00000000e+00
    0.00000000e+00
    0.00000000e+00
    0.00000000e+00
    0.00000000e+00
    0.00000000e+00
    0.00000000e+00
    0.00000000e+00
    0.00000000e+00
    0.00000000e+00
    0.00000000e+00
    0.00000000e+00
    0.00000000e+00
    0.00000000e+00
    0.00000000e+00
    0.00000000e+00
    0.00000000e+00
    0.00000000e+00
    1.65592098e+01
    1.65545937e+01
    1.62345844e+01
    6.85907672e+00
    1.63953228e-01
    2.62369992e+01
    2.62296853e+01
    2.57226511e+01
    1.08677644e+01
    2.59773309e-01
    2.90333682e+01
    2.90252748e+01
    2.84642004e+01
    1.20260630e+01
    2.87460241e-01
    2.49483168e+01
    2.49413622e+01
    2.44592320e+01
    1.03339725e+01
    2.47014026e-01
    1.39818451e+01
    1.39779474e+01
    1.37077461e+01
    5.79149302e+00
    1.38434663e-01
    0.00000000e+00
    0.00000000e+00
    0.00000000e+00
    0.00000000e+00
    0.00000000e+00
    0.00000000e+00
    0.00000000e+00
    0.00000000e+00
    0.00000000e+00
    0.00000000e+00
    0.00000000e+00
    0.00000000e+00
    0.00000000e+00
    0.00000000e+00
    0.00000000e+00
    0.00000000e+00
    0.00000000e+00
    0.00000000e+00
    0.00000000e+00
    0.00000000e+00
    0.00000000e+00
    0.00000000e+00
    0.00000000e+00
    0.00000000e+00
    0.00000000e+00
    0.00000000e+00
    0.00000000e+00
    0.00000000e+00
    0.00000000e+00
    0.00000000e+00
    1.65592098e+01
    1.65545937e+01
    1.62345844e+01
    6.85907672e+00
    1.63953228e-01
    2.62369992e+01
    2.62296853e+01
    2.57226511e+01
    1.08677644e+01
    2.59773309e-01
    2.90333682e+01
    2.90252748e+01
    2.84642004e+01
    1.20260630e+01
    2.87460241e-01
    2.49483168e+01
    2.49413622e+01
    2.44592320e+01
    1.03339725e+01
    2.47014026e-01
    1.39818451e+01
    1.39779474e+01
    1.37077461e+01
    5.79149302e+00
    1.38434663e-01
    0.00000000e+00
    0.00000000e+00
    0.00000000e+00
    0.00000000e+00
    0.00000000e+00
    0.00000000e+00
    0.00000000e+00
    0.00000000e+00
    0.00000000e+00
    0.00000000e+00
    0.00000000e+00
    0.00000000e+00
    0.00000000e+00
    0.00000000e+00
    0.00000000e+00
    0.00000000e+00
    0.00000000e+00
    0.00000000e+00
    0.00000000e+00
    0.00000000e+00
    0.00000000e+00
    0.00000000e+00
    0.00000000e+00
    0.00000000e+00
    0.00000000e+00
    0.00000000e+00
    0.00000000e+00
    0.00000000e+00
    0.00000000e+00
    0.00000000e+00
    1.75685481e+01
    1.75636506e+01
    1.72241356e+01
    7.27715999e+00
    1.73946716e-01
    3.02743523e+01
    3.02659129e+01
    2.96808562e+01
    1.25400975e+01
    2.99747261e-01
    3.81174126e+01
    3.81067868e+01
    3.73701618e+01
    1.57888124e+01
    3.77401634e-01
    4.10977290e+01
    4.10862725e+01
    4.02920524e+01
    1.70233048e+01
    4.06909836e-01
    3.92153016e+01
    3.92043698e+01
    3.84465279e+01
    1.62435748e+01
    3.88271866e-01
    3.24701303e+01
    3.24610788e+01
    3.18335884e+01
    1.34496221e+01
    3.21487725e-01
    2.08622152e+01
    2.08563995e+01
    2.04532339e+01
    8.64144703e+00
    2.06557412e-01
    4.39155613e+00
    4.39033192e+00
    4.30546441e+00
    1.81904938e+00
    4.34809277e-02
    0.00000000e+00
    0.00000000e+00
    0.00000000e+00
    0.00000000e+00
    0.00000000e+00
    0.00000000e+00
    0.00000000e+00
    0.00000000e+00
    0.00000000e+00
    0.00000000e+00
    0.00000000e+00
    0.00000000e+00
    0.00000000e+00
    0.00000000e+00
    0.00000000e+00
    1.75685481e+01
    1.75636506e+01
    1.72241356e+01
    7.27715999e+00
    1.73946716e-01
    3.02743523e+01
    3.02659129e+01
    2.96808562e+01
    1.25400975e+01
    2.99747261e-01
    3.81174126e+01
    3.81067868e+01
    3.73701618e+01
    1.57888124e+01
    3.77401634e-01
    4.10977290e+01
    4.10862725e+01
    4.02920524e+01
    1.70233048e+01
    4.06909836e-01
    3.92153016e+01
    3.92043698e+01
    3.84465279e+01
    1.62435748e+01
    3.88271866e-01
    3.24701303e+01
    3.24610788e+01
    3.18335884e+01
    1.34496221e+01
    3.21487725e-01
    2.08622152e+01
    2.08563995e+01
    2.04532339e+01
    8.64144703e+00
    2.06557412e-01
    4.39155613e+00
    4.39033192e+00
    4.30546441e+00
    1.81904938e+00
    4.34809277e-02
    0.00000000e+00
    0.00000000e+00
    0.00000000e+00
    0.00000000e+00
    0.00000000e+00
    0.00000000e+00
    0.00000000e+00
    0.00000000e+00
    0.00000000e+00
    0.00000000e+00
    0.00000000e+00
    0.00000000e+00
    0.00000000e+00
    0.00000000e+00
    0.00000000e+00
    1.75685481e+01
    1.75636506e+01
    1.72241356e+01
    7.27715999e+00
    1.73946716e-01
    3.02743523e+01
    3.02659129e+01
    2.96808562e+01
    1.25400975e+01
    2.99747261e-01
    3.81174126e+01
    3.81067868e+01
    3.73701618e+01
    1.57888124e+01
    3.77401634e-01
    4.10977290e+01
    4.10862725e+01
    4.02920524e+01
    1.70233048e+01
    4.06909836e-01
    3.92153016e+01
    3.92043698e+01
    3.84465279e+01
    1.62435748e+01
    3.88271866e-01
    3.24701303e+01
    3.24610788e+01
    3.18335884e+01
    1.34496221e+01
    3.21487725e-01
    2.08622152e+01
    2.08563995e+01
    2.04532339e+01
    8.64144703e+00
    2.06557412e-01
    4.39155613e+00
    4.39033192e+00
    4.30546441e+00
    1.81904938e+00
    4.34809277e-02
    0.00000000e+00
    0.00000000e+00
    0.00000000e+00
    0.00000000e+00
    0.00000000e+00
    0.00000000e+00
    0.00000000e+00
    0.00000000e+00
    0.00000000e+00
    0.00000000e+00
    0.00000000e+00
    0.00000000e+00
    0.00000000e+00
    0.00000000e+00
    0.00000000e+00
    1.75685481e+01
    1.75636506e+01
    1.72241356e+01
    7.27715999e+00
    1.73946716e-01
    3.02743523e+01
    3.02659129e+01
    2.96808562e+01
    1.25400975e+01
    2.99747261e-01
    3.81174126e+01
    3.81067868e+01
    3.73701618e+01
    1.57888124e+01
    3.77401634e-01
    4.10977290e+01
    4.10862725e+01
    4.02920524e+01
    1.70233048e+01
    4.06909836e-01
    3.92153016e+01
    3.92043698e+01
    3.84465279e+01
    1.62435748e+01
    3.88271866e-01
    3.24701303e+01
    3.24610788e+01
    3.18335884e+01
    1.34496221e+01
    3.21487725e-01
    2.08622152e+01
    2.08563995e+01
    2.04532339e+01
    8.64144703e+00
    2.06557412e-01
    4.39155613e+00
    4.39033192e+00
    4.30546441e+00
    1.81904938e+00
    4.34809277e-02
    0.00000000e+00
    0.00000000e+00
    0.00000000e+00
    0.00000000e+00
    0.00000000e+00
    0.00000000e+00
    0.00000000e+00
    0.00000000e+00
    0.00000000e+00
    0.00000000e+00
    0.00000000e+00
    0.00000000e+00
    0.00000000e+00
    0.00000000e+00
    0.00000000e+00
    1.75685481e+01
    1.75636506e+01
    1.72241356e+01
    7.27715999e+00
    1.73946716e-01
    3.02743523e+01
    3.02659129e+01
    2.96808562e+01
    1.25400975e+01
    2.99747261e-01
    3.81174126e+01
    3.81067868e+01
    3.73701618e+01
    1.57888124e+01
    3.77401634e-01
    4.10977290e+01
    4.10862725e+01
    4.02920524e+01
    1.70233048e+01
    4.06909836e-01
    3.92153016e+01
    3.92043698e+01
    3.84465279e+01
    1.62435748e+01
    3.88271866e-01
    3.24701303e+01
    3.24610788e+01
    3.18335884e+01
    1.34496221e+01
    3.21487725e-01
    2.08622152e+01
    2.08563995e+01
    2.04532339e+01
    8.64144703e+00
    2.06557412e-01
    4.39155613e+00
    4.39033192e+00
    4.30546441e+00
    1.81904938e+00
    4.34809277e-02
    0.00000000e+00
    0.00000000e+00
    0.00000000e+00
    0.00000000e+00
    0.00000000e+00
    0.00000000e+00
    0.00000000e+00
    0.00000000e+00
    0.00000000e+00
    0.00000000e+00
    0.00000000e+00
    0.00000000e+00
    0.00000000e+00
    0.00000000e+00
    0.00000000e+00
    0.00000000e+00
    0.00000000e+00
    0.00000000e+00
    0.00000000e+00
    0.00000000e+00
    0.00000000e+00
    0.00000000e+00
    0.00000000e+00
    0.00000000e+00
    0.00000000e+00
    0.00000000e+00
    0.00000000e+00
    0.00000000e+00
    0.00000000e+00
    0.00000000e+00
    0.00000000e+00
    0.00000000e+00
    0.00000000e+00
    0.00000000e+00
    0.00000000e+00
    0.00000000e+00
    0.00000000e+00
    0.00000000e+00
    0.00000000e+00
    0.00000000e+00
    0.00000000e+00
    0.00000000e+00
    0.00000000e+00
    0.00000000e+00
    0.00000000e+00
    0.00000000e+00
    0.00000000e+00
    0.00000000e+00
    0.00000000e+00
    0.00000000e+00
    0.00000000e+00
    0.00000000e+00
    0.00000000e+00
    0.00000000e+00
    0.00000000e+00
    0.00000000e+00
    0.00000000e+00
    0.00000000e+00
    0.00000000e+00
    0.00000000e+00
    0.00000000e+00
    0.00000000e+00
    0.00000000e+00
    0.00000000e+00
    0.00000000e+00
    0.00000000e+00
    0.00000000e+00
    0.00000000e+00
    0.00000000e+00
    0.00000000e+00
    0.00000000e+00
    0.00000000e+00
    0.00000000e+00
    0.00000000e+00
    0.00000000e+00
    0.00000000e+00
    0.00000000e+00
    0.00000000e+00
    0.00000000e+00
    0.00000000e+00
    0.00000000e+00
    0.00000000e+00
    0.00000000e+00
    0.00000000e+00
    0.00000000e+00
    0.00000000e+00
    0.00000000e+00
    0.00000000e+00
    0.00000000e+00
    0.00000000e+00
    0.00000000e+00
    0.00000000e+00
    0.00000000e+00
    0.00000000e+00
    0.00000000e+00
    0.00000000e+00
    0.00000000e+00
    0.00000000e+00
    0.00000000e+00
    0.00000000e+00
    0.00000000e+00
    0.00000000e+00
    0.00000000e+00
    0.00000000e+00
    0.00000000e+00
    0.00000000e+00
    0.00000000e+00
    0.00000000e+00
    0.00000000e+00
    0.00000000e+00
    0.00000000e+00
    0.00000000e+00
    0.00000000e+00
    0.00000000e+00
    0.00000000e+00
    0.00000000e+00
    0.00000000e+00
    0.00000000e+00
    0.00000000e+00
    0.00000000e+00
    0.00000000e+00
    0.00000000e+00
    0.00000000e+00
    0.00000000e+00
    0.00000000e+00
    0.00000000e+00
    0.00000000e+00
    0.00000000e+00
    0.00000000e+00
    0.00000000e+00
    0.00000000e+00
    0.00000000e+00
    0.00000000e+00
    0.00000000e+00
    0.00000000e+00
    0.00000000e+00
    0.00000000e+00
    0.00000000e+00
    0.00000000e+00
    0.00000000e+00
    0.00000000e+00
    0.00000000e+00
    0.00000000e+00
    0.00000000e+00
    0.00000000e+00
    0.00000000e+00
    0.00000000e+00
    0.00000000e+00
    0.00000000e+00
    0.00000000e+00
    0.00000000e+00
    0.00000000e+00
    0.00000000e+00
    0.00000000e+00
    0.00000000e+00
    0.00000000e+00
    0.00000000e+00
    0.00000000e+00
    0.00000000e+00
    0.00000000e+00
    0.00000000e+00
    0.00000000e+00
    0.00000000e+00
    0.00000000e+00
    0.00000000e+00
    0.00000000e+00
    0.00000000e+00
    0.00000000e+00
    0.00000000e+00
    0.00000000e+00
    0.00000000e+00
    0.00000000e+00
    0.00000000e+00
    0.00000000e+00
    0.00000000e+00
    0.00000000e+00
    0.00000000e+00
    0.00000000e+00
    0.00000000e+00
    0.00000000e+00
    0.00000000e+00
    0.00000000e+00
    0.00000000e+00
    0.00000000e+00
    0.00000000e+00
    0.00000000e+00
    0.00000000e+00
    0.00000000e+00
    0.00000000e+00
    0.00000000e+00
    0.00000000e+00
    0.00000000e+00
    0.00000000e+00
    0.00000000e+00
    0.00000000e+00
    0.00000000e+00
    0.00000000e+00
    0.00000000e+00
    0.00000000e+00
    0.00000000e+00
    0.00000000e+00
    0.00000000e+00
    0.00000000e+00
    0.00000000e+00
    0.00000000e+00
    0.00000000e+00
    0.00000000e+00
    0.00000000e+00
    0.00000000e+00
    0.00000000e+00
    0.00000000e+00
    0.00000000e+00
    0.00000000e+00
    0.00000000e+00
    0.00000000e+00
    0.00000000e+00
    0.00000000e+00
    0.00000000e+00
    0.00000000e+00
    0.00000000e+00
    0.00000000e+00
    0.00000000e+00
    0.00000000e+00
    0.00000000e+00
    0.00000000e+00
    0.00000000e+00
    0.00000000e+00
    0.00000000e+00
    0.00000000e+00
    0.00000000e+00
    0.00000000e+00
    0.00000000e+00
    0.00000000e+00
    0.00000000e+00
    0.00000000e+00
    0.00000000e+00
    0.00000000e+00
    0.00000000e+00
    0.00000000e+00
    0.00000000e+00
    0.00000000e+00
    0.00000000e+00
    0.00000000e+00
    0.00000000e+00
    0.00000000e+00
    0.00000000e+00
    0.00000000e+00
    0.00000000e+00
    0.00000000e+00
    0.00000000e+00
    0.00000000e+00
    0.00000000e+00
    0.00000000e+00
    0.00000000e+00
    0.00000000e+00
    0.00000000e+00
    0.00000000e+00
    0.00000000e+00
    0.00000000e+00
    0.00000000e+00
    0.00000000e+00
    0.00000000e+00
    0.00000000e+00
    0.00000000e+00
    0.00000000e+00
    0.00000000e+00
    0.00000000e+00
    0.00000000e+00
    0.00000000e+00
    0.00000000e+00
    0.00000000e+00
    0.00000000e+00
    0.00000000e+00
    0.00000000e+00
    0.00000000e+00
    0.00000000e+00
    0.00000000e+00
    0.00000000e+00
    0.00000000e+00
    0.00000000e+00
    0.00000000e+00
    0.00000000e+00
    0.00000000e+00
    0.00000000e+00
    0.00000000e+00
    0.00000000e+00
    0.00000000e+00
    0.00000000e+00
    0.00000000e+00
    0.00000000e+00
    0.00000000e+00
    0.00000000e+00
    0.00000000e+00
    0.00000000e+00
    0.00000000e+00
    0.00000000e+00
    0.00000000e+00
    0.00000000e+00
    0.00000000e+00
    0.00000000e+00
    0.00000000e+00
    0.00000000e+00
    0.00000000e+00
    0.00000000e+00
    0.00000000e+00
    0.00000000e+00
    0.00000000e+00
    0.00000000e+00
    0.00000000e+00
    0.00000000e+00
    0.00000000e+00
    0.00000000e+00
    0.00000000e+00
    0.00000000e+00
    0.00000000e+00
    0.00000000e+00
    0.00000000e+00
    0.00000000e+00
    0.00000000e+00
    0.00000000e+00
    0.00000000e+00
    0.00000000e+00
    0.00000000e+00
    0.00000000e+00
    0.00000000e+00
    0.00000000e+00
    0.00000000e+00
    0.00000000e+00
    0.00000000e+00
    0.00000000e+00
    0.00000000e+00
    0.00000000e+00
    0.00000000e+00
    0.00000000e+00
    0.00000000e+00
    0.00000000e+00
    0.00000000e+00
    0.00000000e+00
    0.00000000e+00
    0.00000000e+00
    0.00000000e+00
    0.00000000e+00
    0.00000000e+00
    0.00000000e+00
    0.00000000e+00
    0.00000000e+00
    0.00000000e+00
    0.00000000e+00
    0.00000000e+00
    0.00000000e+00
    0.00000000e+00
    0.00000000e+00
    0.00000000e+00
    0.00000000e+00
    0.00000000e+00
    0.00000000e+00
    0.00000000e+00
    0.00000000e+00
    0.00000000e+00
    0.00000000e+00
    0.00000000e+00
    0.00000000e+00
    0.00000000e+00
    0.00000000e+00
    0.00000000e+00
    0.00000000e+00
    0.00000000e+00
    0.00000000e+00
    0.00000000e+00
    0.00000000e+00
    0.00000000e+00
    0.00000000e+00
    0.00000000e+00
    0.00000000e+00
    0.00000000e+00
    0.00000000e+00
    0.00000000e+00
    0.00000000e+00
    0.00000000e+00
    0.00000000e+00
    0.00000000e+00
    0.00000000e+00
    0.00000000e+00
    0.00000000e+00
    0.00000000e+00
    0.00000000e+00
    0.00000000e+00
    0.00000000e+00
    0.00000000e+00
    0.00000000e+00
    0.00000000e+00
    0.00000000e+00
    0.00000000e+00
    0.00000000e+00
    0.00000000e+00
    0.00000000e+00
    0.00000000e+00
    0.00000000e+00
    0.00000000e+00
    0.00000000e+00
    0.00000000e+00
    0.00000000e+00
    0.00000000e+00
    0.00000000e+00
    0.00000000e+00
    0.00000000e+00
    0.00000000e+00
    0.00000000e+00
    0.00000000e+00
    0.00000000e+00
    0.00000000e+00
    0.00000000e+00
    0.00000000e+00
    0.00000000e+00
    0.00000000e+00
    0.00000000e+00
    0.00000000e+00
    0.00000000e+00
    0.00000000e+00
    0.00000000e+00
    0.00000000e+00
    0.00000000e+00
    0.00000000e+00
    0.00000000e+00
    0.00000000e+00
    0.00000000e+00
    0.00000000e+00
    0.00000000e+00
    0.00000000e+00
    0.00000000e+00
    0.00000000e+00
    0.00000000e+00
    0.00000000e+00
    0.00000000e+00
    0.00000000e+00
    0.00000000e+00
    0.00000000e+00
    0.00000000e+00
    0.00000000e+00
    0.00000000e+00
    0.00000000e+00
    0.00000000e+00
    0.00000000e+00
    0.00000000e+00
    0.00000000e+00
    0.00000000e+00
    0.00000000e+00
    0.00000000e+00
    0.00000000e+00
    0.00000000e+00
    0.00000000e+00
    0.00000000e+00
    0.00000000e+00
    0.00000000e+00
    0.00000000e+00
    0.00000000e+00
    0.00000000e+00
    0.00000000e+00
    0.00000000e+00
    0.00000000e+00
    0.00000000e+00
    0.00000000e+00
    0.00000000e+00
    0.00000000e+00
    0.00000000e+00
    0.00000000e+00
    0.00000000e+00
    0.00000000e+00
    0.00000000e+00
    0.00000000e+00
    0.00000000e+00
    0.00000000e+00
    0.00000000e+00
    0.00000000e+00
    0.00000000e+00
    0.00000000e+00
    0.00000000e+00
    0.00000000e+00
    0.00000000e+00
    0.00000000e+00
    0.00000000e+00
    0.00000000e+00
    0.00000000e+00
    0.00000000e+00
    0.00000000e+00
    0.00000000e+00
    0.00000000e+00
    0.00000000e+00
    0.00000000e+00
    0.00000000e+00
    0.00000000e+00
    0.00000000e+00
    0.00000000e+00
    0.00000000e+00
    0.00000000e+00
    0.00000000e+00
    0.00000000e+00
    0.00000000e+00
    0.00000000e+00
    0.00000000e+00
    0.00000000e+00
    0.00000000e+00
    0.00000000e+00
    0.00000000e+00
    0.00000000e+00
    0.00000000e+00
    0.00000000e+00
    0.00000000e+00
    0.00000000e+00
    0.00000000e+00
    0.00000000e+00
    0.00000000e+00
    0.00000000e+00
    0.00000000e+00
    0.00000000e+00
    0.00000000e+00
    0.00000000e+00
    0.00000000e+00
    0.00000000e+00
    0.00000000e+00
    0.00000000e+00
    0.00000000e+00
    0.00000000e+00
    0.00000000e+00
    0.00000000e+00
    0.00000000e+00
    0.00000000e+00
    0.00000000e+00
    0.00000000e+00
    0.00000000e+00
    0.00000000e+00
    0.00000000e+00
    0.00000000e+00
    0.00000000e+00
    0.00000000e+00
    0.00000000e+00
    0.00000000e+00
    0.00000000e+00
    0.00000000e+00
    0.00000000e+00
    0.00000000e+00
    0.00000000e+00
    0.00000000e+00
    0.00000000e+00
    0.00000000e+00
    0.00000000e+00
    0.00000000e+00
    0.00000000e+00
    0.00000000e+00
    0.00000000e+00
    0.00000000e+00
    0.00000000e+00
    0.00000000e+00
    0.00000000e+00
    0.00000000e+00
    0.00000000e+00
    0.00000000e+00
    0.00000000e+00
    0.00000000e+00
    0.00000000e+00
    0.00000000e+00
    0.00000000e+00
    0.00000000e+00
    0.00000000e+00
    0.00000000e+00
    0.00000000e+00
    0.00000000e+00
    0.00000000e+00
    0.00000000e+00
    0.00000000e+00
    0.00000000e+00
    0.00000000e+00
    0.00000000e+00
    0.00000000e+00
    0.00000000e+00
    0.00000000e+00
    0.00000000e+00
    0.00000000e+00
    0.00000000e+00
    0.00000000e+00
    0.00000000e+00
    0.00000000e+00
    0.00000000e+00
    0.00000000e+00
    0.00000000e+00
    0.00000000e+00
    0.00000000e+00
    0.00000000e+00
    0.00000000e+00
    0.00000000e+00
    0.00000000e+00
    0.00000000e+00
    0.00000000e+00
    0.00000000e+00
    0.00000000e+00
    0.00000000e+00
    0.00000000e+00
    0.00000000e+00
    0.00000000e+00
    0.00000000e+00
    0.00000000e+00
    0.00000000e+00
    0.00000000e+00
    0.00000000e+00
    0.00000000e+00
    0.00000000e+00
    0.00000000e+00
    0.00000000e+00
    0.00000000e+00
    0.00000000e+00
    0.00000000e+00
    0.00000000e+00
    0.00000000e+00
    0.00000000e+00
    0.00000000e+00
    0.00000000e+00
    0.00000000e+00
    0.00000000e+00
    0.00000000e+00
    0.00000000e+00
    0.00000000e+00
    0.00000000e+00
    0.00000000e+00
    0.00000000e+00
    0.00000000e+00
    0.00000000e+00
    0.00000000e+00
    0.00000000e+00
    0.00000000e+00
    0.00000000e+00
    0.00000000e+00
    0.00000000e+00
    0.00000000e+00
    0.00000000e+00
    0.00000000e+00
    0.00000000e+00
    0.00000000e+00
    0.00000000e+00
    0.00000000e+00
    0.00000000e+00
    0.00000000e+00
    0.00000000e+00
    0.00000000e+00
    0.00000000e+00
    0.00000000e+00
    0.00000000e+00
    0.00000000e+00
    0.00000000e+00
    0.00000000e+00
    0.00000000e+00
    0.00000000e+00
    0.00000000e+00
    0.00000000e+00
    0.00000000e+00
    0.00000000e+00
    0.00000000e+00
    0.00000000e+00
    0.00000000e+00
    0.00000000e+00
    0.00000000e+00
    0.00000000e+00
    0.00000000e+00
    0.00000000e+00
    0.00000000e+00
    0.00000000e+00
    0.00000000e+00
    0.00000000e+00
    0.00000000e+00
    0.00000000e+00
    0.00000000e+00
    0.00000000e+00
    0.00000000e+00
    0.00000000e+00
    0.00000000e+00
    0.00000000e+00
    0.00000000e+00
    0.00000000e+00
    0.00000000e+00
    0.00000000e+00
    0.00000000e+00
    0.00000000e+00
    0.00000000e+00
    0.00000000e+00
    0.00000000e+00
    0.00000000e+00
    0.00000000e+00
    0.00000000e+00
    0.00000000e+00
    0.00000000e+00
    0.00000000e+00
    0.00000000e+00
    0.00000000e+00
    0.00000000e+00
    0.00000000e+00
    0.00000000e+00
    0.00000000e+00
    0.00000000e+00
    0.00000000e+00
    0.00000000e+00
    0.00000000e+00
    0.00000000e+00
    0.00000000e+00
    0.00000000e+00
    0.00000000e+00
    0.00000000e+00
    0.00000000e+00
    0.00000000e+00
    0.00000000e+00
    0.00000000e+00
    0.00000000e+00
    0.00000000e+00
    0.00000000e+00
    0.00000000e+00
    0.00000000e+00
    0.00000000e+00
    0.00000000e+00
    0.00000000e+00
    0.00000000e+00
    0.00000000e+00
    0.00000000e+00
    0.00000000e+00
    0.00000000e+00
    0.00000000e+00
    0.00000000e+00
    0.00000000e+00
    0.00000000e+00
    0.00000000e+00
    0.00000000e+00
    0.00000000e+00
    0.00000000e+00
    0.00000000e+00
    0.00000000e+00
    0.00000000e+00
    0.00000000e+00
    0.00000000e+00
    0.00000000e+00
    0.00000000e+00
    0.00000000e+00
    0.00000000e+00
    0.00000000e+00
    0.00000000e+00
    0.00000000e+00
    0.00000000e+00
    0.00000000e+00
    0.00000000e+00
    0.00000000e+00
    0.00000000e+00
    0.00000000e+00
    0.00000000e+00
    0.00000000e+00
    0.00000000e+00
    0.00000000e+00
    0.00000000e+00
    0.00000000e+00
    0.00000000e+00
    0.00000000e+00
    0.00000000e+00
    0.00000000e+00
    0.00000000e+00
    0.00000000e+00
    0.00000000e+00
    0.00000000e+00
    0.00000000e+00
    0.00000000e+00
    0.00000000e+00
    0.00000000e+00
    0.00000000e+00
    0.00000000e+00
    0.00000000e+00
    0.00000000e+00
    0.00000000e+00
    0.00000000e+00
    0.00000000e+00
    0.00000000e+00
    0.00000000e+00
    0.00000000e+00
    0.00000000e+00
    0.00000000e+00
    0.00000000e+00
    0.00000000e+00
    0.00000000e+00
    0.00000000e+00
    0.00000000e+00
    0.00000000e+00
    0.00000000e+00
    0.00000000e+00
    0.00000000e+00
    0.00000000e+00
    0.00000000e+00
    0.00000000e+00
    0.00000000e+00
    0.00000000e+00
    0.00000000e+00
    0.00000000e+00
    0.00000000e+00
    0.00000000e+00
    0.00000000e+00
    0.00000000e+00
    0.00000000e+00
    0.00000000e+00
    0.00000000e+00
    0.00000000e+00
    0.00000000e+00
    0.00000000e+00
    0.00000000e+00
    0.00000000e+00
    0.00000000e+00
    0.00000000e+00
    0.00000000e+00
    0.00000000e+00
    0.00000000e+00
    0.00000000e+00
    0.00000000e+00
    0.00000000e+00
    0.00000000e+00
    0.00000000e+00
    0.00000000e+00
    0.00000000e+00
    0.00000000e+00
    0.00000000e+00
    0.00000000e+00
    0.00000000e+00
    0.00000000e+00
    0.00000000e+00
    0.00000000e+00
    0.00000000e+00
    0.00000000e+00
    0.00000000e+00
    0.00000000e+00
    0.00000000e+00
    0.00000000e+00
    0.00000000e+00
    0.00000000e+00
    0.00000000e+00
    0.00000000e+00
    0.00000000e+00
    0.00000000e+00
    0.00000000e+00
    0.00000000e+00
    0.00000000e+00
    0.00000000e+00
    0.00000000e+00
    0.00000000e+00
    0.00000000e+00
    0.00000000e+00
    0.00000000e+00
    0.00000000e+00
    0.00000000e+00
    0.00000000e+00
    0.00000000e+00
    0.00000000e+00
    0.00000000e+00
    0.00000000e+00
    0.00000000e+00
    0.00000000e+00
    0.00000000e+00
    0.00000000e+00
    0.00000000e+00
    0.00000000e+00
    0.00000000e+00
    0.00000000e+00
    0.00000000e+00
    0.00000000e+00
    0.00000000e+00
    0.00000000e+00
    0.00000000e+00
    0.00000000e+00
    0.00000000e+00
    0.00000000e+00
    0.00000000e+00
    0.00000000e+00
    0.00000000e+00
    0.00000000e+00
    0.00000000e+00
    0.00000000e+00
    0.00000000e+00
    0.00000000e+00
    0.00000000e+00
    0.00000000e+00
    0.00000000e+00
    0.00000000e+00
    0.00000000e+00
    0.00000000e+00
    0.00000000e+00
    0.00000000e+00
    0.00000000e+00
    0.00000000e+00
    0.00000000e+00
    0.00000000e+00
    0.00000000e+00
    0.00000000e+00
    0.00000000e+00
    0.00000000e+00
    0.00000000e+00
    0.00000000e+00
    0.00000000e+00
    0.00000000e+00
    0.00000000e+00
    0.00000000e+00
    0.00000000e+00
    0.00000000e+00
    0.00000000e+00
    0.00000000e+00
    0.00000000e+00
    0.00000000e+00
    0.00000000e+00
    0.00000000e+00
    0.00000000e+00
    0.00000000e+00
    0.00000000e+00
    0.00000000e+00
    0.00000000e+00
    0.00000000e+00
    0.00000000e+00
    0.00000000e+00
    0.00000000e+00
    0.00000000e+00
    0.00000000e+00
    0.00000000e+00
    0.00000000e+00
    0.00000000e+00
    0.00000000e+00
    0.00000000e+00
    0.00000000e+00
    0.00000000e+00
    0.00000000e+00
    0.00000000e+00
    0.00000000e+00
    0.00000000e+00
    0.00000000e+00
    0.00000000e+00
    0.00000000e+00
    0.00000000e+00
    0.00000000e+00
    0.00000000e+00
    0.00000000e+00
    0.00000000e+00
    0.00000000e+00
    0.00000000e+00
    0.00000000e+00
    0.00000000e+00
    0.00000000e+00
    0.00000000e+00
    0.00000000e+00
    0.00000000e+00
    0.00000000e+00
    0.00000000e+00
    0.00000000e+00
    0.00000000e+00
    0.00000000e+00
    0.00000000e+00
    0.00000000e+00
    0.00000000e+00